data_generated
_cell_length_a               9.30530
_cell_length_b               12.63120
_cell_length_c               27.63120
_cell_angle_alpha            90.00000
_cell_angle_beta             90.00000
_cell_angle_gamma            90.00000
_space_group_name_H-M_alt    'P 1'
loop_
 _atom_site_label
 _atom_site_type_symbol
 _atom_site_fract_x
 _atom_site_fract_y
 _atom_site_fract_z
 O1       O    2.27501    2.00002    0.00001   
 O2       O    2.27507    2.66667    0.00001   
 O3       O    2.27501    2.33333    0.00001   
 O4       O    2.27497    2.00002    0.15238   
 O5       O    2.27504    2.66668    0.15238   
 O6       O    2.27498    2.33333    0.15239   
 Mg7      Mg   2.28130    2.99999    0.07619   
 Mg8      Mg   2.28132    2.66669    0.07621   
 Mg9      Mg   2.28131    2.33339    0.07619   
 Mg10     Mg   2.28128    2.99998    0.22858   
 Mg11     Mg   2.28131    2.66668    0.22858   
 Mg12     Mg   2.28128    2.33338    0.22858   
 Mg13     Mg   2.28132    2.83334    0.00001   
 Mg14     Mg   2.28132    2.50003    0.00001   
 Mg15     Mg   2.28127    2.16668    0.00000   
 Mg16     Mg   2.28131    2.83333    0.15239   
 Mg17     Mg   2.28131    2.50004    0.15239   
 Mg18     Mg   2.28127    2.16670    0.15238   
 O19      O    2.27500    2.83334    0.07619   
 O20      O    2.27500    2.50000    0.07619   
 O21      O    2.27500    2.16667    0.07620   
 O22      O    2.27496    2.83335    0.22857   
 O23      O    2.27497    2.50002    0.22857   
 O24      O    2.27515    2.16666    0.22858   
 O25      O    2.50631    2.83333    0.00001   
 O26      O    2.50631    2.50002    0.00001   
 O27      O    2.50629    2.16668    0.00001   
 O28      O    2.50629    2.83333    0.15238   
 O29      O    2.50628    2.50002    0.15238   
 O30      O    2.50627    2.16668    0.15238   
 O31      O    2.50632    2.99996    0.07619   
 O32      O    2.50630    2.66668    0.07620   
 O33      O    2.50632    2.33340    0.07620   
 O34      O    2.50630    2.99994    0.22858   
 O35      O    2.50630    2.66668    0.22858   
 O36      O    2.50630    2.33342    0.22858   
 Mg37     Mg   2.50630    2.83336    0.07620   
 Mg38     Mg   2.50631    2.50000    0.07619   
 Mg39     Mg   2.50623    2.16668    0.07620   
 Mg40     Mg   2.50631    2.83336    0.22858   
 Mg41     Mg   2.50633    2.50000    0.22858   
 Mg42     Mg   2.50629    2.16668    0.22857   
 Mg43     Mg   2.50631    2.00006    0.00001   
 Mg44     Mg   2.50632    2.66668    0.00001   
 Mg45     Mg   2.50631    2.33329    0.00001   
 Mg46     Mg   2.50626    2.00007    0.15239   
 Mg47     Mg   2.50633    2.66668    0.15239   
 Mg48     Mg   2.50627    2.33329    0.15239   
 O49      O    2.73760    2.83334    0.07620   
 O50      O    2.73760    2.50003    0.07620   
 O51      O    2.73760    2.16668    0.07619   
 O52      O    2.73763    2.83333    0.22858   
 O53      O    2.73763    2.50002    0.22858   
 O54      O    2.73741    2.16669    0.22858   
 O55      O    2.73762    2.00003    0.00001   
 O56      O    2.73756    2.66668    0.00001   
 O57      O    2.73762    2.33333    0.00001   
 O58      O    2.73759    2.00002    0.15239   
 O59      O    2.73759    2.66668    0.15239   
 O60      O    2.73760    2.33334    0.15239   
 Mg61     Mg   2.73130    2.99998    0.07619   
 Mg62     Mg   2.73131    2.66667    0.07620   
 Mg63     Mg   2.73130    2.33336    0.07619   
 Mg64     Mg   2.73131    2.99999    0.22858   
 Mg65     Mg   2.73132    2.66668    0.22857   
 Mg66     Mg   2.73132    2.33337    0.22858   
 Mg67     Mg   2.73131    2.83333    0.00001   
 Mg68     Mg   2.73131    2.50001    0.00001   
 Mg69     Mg   2.73131    2.16667    0.00001   
 Mg70     Mg   2.73129    2.83333    0.15238   
 Mg71     Mg   2.73130    2.50001    0.15238   
 Mg72     Mg   2.73134    2.16667    0.15237   
 O73      O    1.27501    2.00002    0.00001   
 O74      O    1.27507    2.66667    0.00001   
 O75      O    1.27501    2.33333    0.00001   
 O76      O    1.27497    2.00002    0.15238   
 O77      O    1.27504    2.66668    0.15238   
 O78      O    1.27498    2.33333    0.15239   
 Mg79     Mg   1.28130    2.99999    0.07619   
 Mg80     Mg   1.28132    2.66669    0.07621   
 Mg81     Mg   1.28131    2.33339    0.07619   
 Mg82     Mg   1.28128    2.99998    0.22858   
 Mg83     Mg   1.28131    2.66668    0.22858   
 Mg84     Mg   1.28128    2.33338    0.22858   
 Mg85     Mg   1.28132    2.83334    0.00001   
 Mg86     Mg   1.28132    2.50003    0.00001   
 Mg87     Mg   1.28127    2.16668    0.00000   
 Mg88     Mg   1.28131    2.83333    0.15239   
 Mg89     Mg   1.28131    2.50004    0.15239   
 Mg90     Mg   1.28127    2.16670    0.15238   
 O91      O    1.27500    2.83334    0.07619   
 O92      O    1.27500    2.50000    0.07619   
 O93      O    1.27500    2.16667    0.07620   
 O94      O    1.27496    2.83335    0.22857   
 O95      O    1.27497    2.50002    0.22857   
 O96      O    1.27515    2.16666    0.22858   
 O97      O    1.50631    2.83333    0.00001   
 O98      O    1.50631    2.50002    0.00001   
 O99      O    1.50629    2.16668    0.00001   
 O100     O    1.50629    2.83333    0.15238   
 O101     O    1.50628    2.50002    0.15238   
 O102     O    1.50627    2.16668    0.15238   
 O103     O    1.50632    2.99996    0.07619   
 O104     O    1.50630    2.66668    0.07620   
 O105     O    1.50632    2.33340    0.07620   
 O106     O    1.50630    2.99994    0.22858   
 O107     O    1.50630    2.66668    0.22858   
 O108     O    1.50630    2.33342    0.22858   
 Mg109    Mg   1.50630    2.83336    0.07620   
 Mg110    Mg   1.50631    2.50000    0.07619   
 Mg111    Mg   1.50623    2.16668    0.07620   
 Mg112    Mg   1.50631    2.83336    0.22858   
 Mg113    Mg   1.50633    2.50000    0.22858   
 Mg114    Mg   1.50629    2.16668    0.22857   
 Mg115    Mg   1.50631    2.00006    0.00001   
 Mg116    Mg   1.50632    2.66668    0.00001   
 Mg117    Mg   1.50631    2.33329    0.00001   
 Mg118    Mg   1.50626    2.00007    0.15239   
 Mg119    Mg   1.50633    2.66668    0.15239   
 Mg120    Mg   1.50627    2.33329    0.15239   
 O121     O    1.73760    2.83334    0.07620   
 O122     O    1.73760    2.50003    0.07620   
 O123     O    1.73760    2.16668    0.07619   
 O124     O    1.73763    2.83333    0.22858   
 O125     O    1.73763    2.50002    0.22858   
 O126     O    1.73741    2.16669    0.22858   
 O127     O    1.73762    2.00003    0.00001   
 O128     O    1.73756    2.66668    0.00001   
 O129     O    1.73762    2.33333    0.00001   
 O130     O    1.73759    2.00002    0.15239   
 O131     O    1.73759    2.66668    0.15239   
 O132     O    1.73760    2.33334    0.15239   
 Mg133    Mg   1.73130    2.99998    0.07619   
 Mg134    Mg   1.73131    2.66667    0.07620   
 Mg135    Mg   1.73130    2.33336    0.07619   
 Mg136    Mg   1.73131    2.99999    0.22858   
 Mg137    Mg   1.73132    2.66668    0.22857   
 Mg138    Mg   1.73132    2.33337    0.22858   
 Mg139    Mg   1.73131    2.83333    0.00001   
 Mg140    Mg   1.73131    2.50001    0.00001   
 Mg141    Mg   1.73131    2.16667    0.00001   
 Mg142    Mg   1.73129    2.83333    0.15238   
 Mg143    Mg   1.73130    2.50001    0.15238   
 Mg144    Mg   1.73134    2.16667    0.15237   
 O145     O    0.27501    2.00002    0.00001   
 O146     O    0.27507    2.66667    0.00001   
 O147     O    0.27501    2.33333    0.00001   
 O148     O    0.27497    2.00002    0.15238   
 O149     O    0.27504    2.66668    0.15238   
 O150     O    0.27498    2.33333    0.15239   
 Mg151    Mg   0.28130    2.99999    0.07619   
 Mg152    Mg   0.28132    2.66669    0.07621   
 Mg153    Mg   0.28131    2.33339    0.07619   
 Mg154    Mg   0.28128    2.99998    0.22858   
 Mg155    Mg   0.28131    2.66668    0.22858   
 Mg156    Mg   0.28128    2.33338    0.22858   
 Mg157    Mg   0.28132    2.83334    0.00001   
 Mg158    Mg   0.28132    2.50003    0.00001   
 Mg159    Mg   0.28127    2.16668    0.00000   
 Mg160    Mg   0.28131    2.83333    0.15239   
 Mg161    Mg   0.28131    2.50004    0.15239   
 Mg162    Mg   0.28127    2.16670    0.15238   
 O163     O    0.27500    2.83334    0.07619   
 O164     O    0.27500    2.50000    0.07619   
 O165     O    0.27500    2.16667    0.07620   
 O166     O    0.27496    2.83335    0.22857   
 O167     O    0.27497    2.50002    0.22857   
 O168     O    0.27515    2.16666    0.22858   
 O169     O    0.50631    2.83333    0.00001   
 O170     O    0.50631    2.50002    0.00001   
 O171     O    0.50629    2.16668    0.00001   
 O172     O    0.50629    2.83333    0.15238   
 O173     O    0.50628    2.50002    0.15238   
 O174     O    0.50627    2.16668    0.15238   
 O175     O    0.50632    2.99996    0.07619   
 O176     O    0.50630    2.66668    0.07620   
 O177     O    0.50632    2.33340    0.07620   
 O178     O    0.50630    2.99994    0.22858   
 O179     O    0.50630    2.66668    0.22858   
 O180     O    0.50630    2.33342    0.22858   
 Mg181    Mg   0.50630    2.83336    0.07620   
 Mg182    Mg   0.50631    2.50000    0.07619   
 Mg183    Mg   0.50623    2.16668    0.07620   
 Mg184    Mg   0.50631    2.83336    0.22858   
 Mg185    Mg   0.50633    2.50000    0.22858   
 Mg186    Mg   0.50629    2.16668    0.22857   
 Mg187    Mg   0.50631    2.00006    0.00001   
 Mg188    Mg   0.50632    2.66668    0.00001   
 Mg189    Mg   0.50631    2.33329    0.00001   
 Mg190    Mg   0.50626    2.00007    0.15239   
 Mg191    Mg   0.50633    2.66668    0.15239   
 Mg192    Mg   0.50627    2.33329    0.15239   
 O193     O    0.73760    2.83334    0.07620   
 O194     O    0.73760    2.50003    0.07620   
 O195     O    0.73760    2.16668    0.07619   
 O196     O    0.73763    2.83333    0.22858   
 O197     O    0.73763    2.50002    0.22858   
 O198     O    0.73741    2.16669    0.22858   
 O199     O    0.73762    2.00003    0.00001   
 O200     O    0.73756    2.66668    0.00001   
 O201     O    0.73762    2.33333    0.00001   
 O202     O    0.73759    2.00002    0.15239   
 O203     O    0.73759    2.66668    0.15239   
 O204     O    0.73760    2.33334    0.15239   
 Mg205    Mg   0.73130    2.99998    0.07619   
 Mg206    Mg   0.73131    2.66667    0.07620   
 Mg207    Mg   0.73130    2.33336    0.07619   
 Mg208    Mg   0.73131    2.99999    0.22858   
 Mg209    Mg   0.73132    2.66668    0.22857   
 Mg210    Mg   0.73132    2.33337    0.22858   
 Mg211    Mg   0.73131    2.83333    0.00001   
 Mg212    Mg   0.73131    2.50001    0.00001   
 Mg213    Mg   0.73131    2.16667    0.00001   
 Mg214    Mg   0.73129    2.83333    0.15238   
 Mg215    Mg   0.73130    2.50001    0.15238   
 Mg216    Mg   0.73134    2.16667    0.15237   
 O217     O    -0.72499   2.00002    0.00001   
 O218     O    -0.72493   2.66667    0.00001   
 O219     O    -0.72499   2.33333    0.00001   
 O220     O    -0.72503   2.00002    0.15238   
 O221     O    -0.72496   2.66668    0.15238   
 O222     O    -0.72502   2.33333    0.15239   
 Mg223    Mg   -0.71870   2.99999    0.07619   
 Mg224    Mg   -0.71868   2.66669    0.07621   
 Mg225    Mg   -0.71869   2.33339    0.07619   
 Mg226    Mg   -0.71872   2.99998    0.22858   
 Mg227    Mg   -0.71869   2.66668    0.22858   
 Mg228    Mg   -0.71872   2.33338    0.22858   
 Mg229    Mg   -0.71868   2.83334    0.00001   
 Mg230    Mg   -0.71868   2.50003    0.00001   
 Mg231    Mg   -0.71873   2.16668    0.00000   
 Mg232    Mg   -0.71869   2.83333    0.15239   
 Mg233    Mg   -0.71869   2.50004    0.15239   
 Mg234    Mg   -0.71873   2.16670    0.15238   
 O235     O    -0.72500   2.83334    0.07619   
 O236     O    -0.72500   2.50000    0.07619   
 O237     O    -0.72500   2.16667    0.07620   
 O238     O    -0.72504   2.83335    0.22857   
 O239     O    -0.72503   2.50002    0.22857   
 O240     O    -0.72485   2.16666    0.22858   
 O241     O    -0.49369   2.83333    0.00001   
 O242     O    -0.49369   2.50002    0.00001   
 O243     O    -0.49371   2.16668    0.00001   
 O244     O    -0.49371   2.83333    0.15238   
 O245     O    -0.49372   2.50002    0.15238   
 O246     O    -0.49373   2.16668    0.15238   
 O247     O    -0.49368   2.99996    0.07619   
 O248     O    -0.49370   2.66668    0.07620   
 O249     O    -0.49368   2.33340    0.07620   
 O250     O    -0.49370   2.99994    0.22858   
 O251     O    -0.49370   2.66668    0.22858   
 O252     O    -0.49370   2.33342    0.22858   
 Mg253    Mg   -0.49370   2.83336    0.07620   
 Mg254    Mg   -0.49369   2.50000    0.07619   
 Mg255    Mg   -0.49377   2.16668    0.07620   
 Mg256    Mg   -0.49369   2.83336    0.22858   
 Mg257    Mg   -0.49367   2.50000    0.22858   
 Mg258    Mg   -0.49371   2.16668    0.22857   
 Mg259    Mg   -0.49369   2.00006    0.00001   
 Mg260    Mg   -0.49368   2.66668    0.00001   
 Mg261    Mg   -0.49369   2.33329    0.00001   
 Mg262    Mg   -0.49374   2.00007    0.15239   
 Mg263    Mg   -0.49367   2.66668    0.15239   
 Mg264    Mg   -0.49373   2.33329    0.15239   
 O265     O    -0.26240   2.83334    0.07620   
 O266     O    -0.26240   2.50003    0.07620   
 O267     O    -0.26240   2.16668    0.07619   
 O268     O    -0.26237   2.83333    0.22858   
 O269     O    -0.26237   2.50002    0.22858   
 O270     O    -0.26259   2.16669    0.22858   
 O271     O    -0.26238   2.00003    0.00001   
 O272     O    -0.26244   2.66668    0.00001   
 O273     O    -0.26238   2.33333    0.00001   
 O274     O    -0.26241   2.00002    0.15239   
 O275     O    -0.26241   2.66668    0.15239   
 O276     O    -0.26240   2.33334    0.15239   
 Mg277    Mg   -0.26870   2.99998    0.07619   
 Mg278    Mg   -0.26869   2.66667    0.07620   
 Mg279    Mg   -0.26870   2.33336    0.07619   
 Mg280    Mg   -0.26869   2.99999    0.22858   
 Mg281    Mg   -0.26868   2.66668    0.22857   
 Mg282    Mg   -0.26868   2.33337    0.22858   
 Mg283    Mg   -0.26869   2.83333    0.00001   
 Mg284    Mg   -0.26869   2.50001    0.00001   
 Mg285    Mg   -0.26869   2.16667    0.00001   
 Mg286    Mg   -0.26871   2.83333    0.15238   
 Mg287    Mg   -0.26870   2.50001    0.15238   
 Mg288    Mg   -0.26866   2.16667    0.15237   
 O289     O    -1.72499   2.00002    0.00001   
 O290     O    -1.72493   2.66667    0.00001   
 O291     O    -1.72499   2.33333    0.00001   
 O292     O    -1.72503   2.00002    0.15238   
 O293     O    -1.72496   2.66668    0.15238   
 O294     O    -1.72502   2.33333    0.15239   
 Mg295    Mg   -1.71870   2.99999    0.07619   
 Mg296    Mg   -1.71868   2.66669    0.07621   
 Mg297    Mg   -1.71869   2.33339    0.07619   
 Mg298    Mg   -1.71872   2.99998    0.22858   
 Mg299    Mg   -1.71869   2.66668    0.22858   
 Mg300    Mg   -1.71872   2.33338    0.22858   
 Mg301    Mg   -1.71868   2.83334    0.00001   
 Mg302    Mg   -1.71868   2.50003    0.00001   
 Mg303    Mg   -1.71873   2.16668    0.00000   
 Mg304    Mg   -1.71869   2.83333    0.15239   
 Mg305    Mg   -1.71869   2.50004    0.15239   
 Mg306    Mg   -1.71873   2.16670    0.15238   
 O307     O    -1.72500   2.83334    0.07619   
 O308     O    -1.72500   2.50000    0.07619   
 O309     O    -1.72500   2.16667    0.07620   
 O310     O    -1.72504   2.83335    0.22857   
 O311     O    -1.72503   2.50002    0.22857   
 O312     O    -1.72485   2.16666    0.22858   
 O313     O    -1.49369   2.83333    0.00001   
 O314     O    -1.49369   2.50002    0.00001   
 O315     O    -1.49371   2.16668    0.00001   
 O316     O    -1.49371   2.83333    0.15238   
 O317     O    -1.49372   2.50002    0.15238   
 O318     O    -1.49373   2.16668    0.15238   
 O319     O    -1.49368   2.99996    0.07619   
 O320     O    -1.49370   2.66668    0.07620   
 O321     O    -1.49368   2.33340    0.07620   
 O322     O    -1.49370   2.99994    0.22858   
 O323     O    -1.49370   2.66668    0.22858   
 O324     O    -1.49370   2.33342    0.22858   
 Mg325    Mg   -1.49370   2.83336    0.07620   
 Mg326    Mg   -1.49369   2.50000    0.07619   
 Mg327    Mg   -1.49377   2.16668    0.07620   
 Mg328    Mg   -1.49369   2.83336    0.22858   
 Mg329    Mg   -1.49367   2.50000    0.22858   
 Mg330    Mg   -1.49371   2.16668    0.22857   
 Mg331    Mg   -1.49369   2.00006    0.00001   
 Mg332    Mg   -1.49368   2.66668    0.00001   
 Mg333    Mg   -1.49369   2.33329    0.00001   
 Mg334    Mg   -1.49374   2.00007    0.15239   
 Mg335    Mg   -1.49367   2.66668    0.15239   
 Mg336    Mg   -1.49373   2.33329    0.15239   
 O337     O    -1.26240   2.83334    0.07620   
 O338     O    -1.26240   2.50003    0.07620   
 O339     O    -1.26240   2.16668    0.07619   
 O340     O    -1.26237   2.83333    0.22858   
 O341     O    -1.26237   2.50002    0.22858   
 O342     O    -1.26259   2.16669    0.22858   
 O343     O    -1.26238   2.00003    0.00001   
 O344     O    -1.26244   2.66668    0.00001   
 O345     O    -1.26238   2.33333    0.00001   
 O346     O    -1.26241   2.00002    0.15239   
 O347     O    -1.26241   2.66668    0.15239   
 O348     O    -1.26240   2.33334    0.15239   
 Mg349    Mg   -1.26870   2.99998    0.07619   
 Mg350    Mg   -1.26869   2.66667    0.07620   
 Mg351    Mg   -1.26870   2.33336    0.07619   
 Mg352    Mg   -1.26869   2.99999    0.22858   
 Mg353    Mg   -1.26868   2.66668    0.22857   
 Mg354    Mg   -1.26868   2.33337    0.22858   
 Mg355    Mg   -1.26869   2.83333    0.00001   
 Mg356    Mg   -1.26869   2.50001    0.00001   
 Mg357    Mg   -1.26869   2.16667    0.00001   
 Mg358    Mg   -1.26871   2.83333    0.15238   
 Mg359    Mg   -1.26870   2.50001    0.15238   
 Mg360    Mg   -1.26866   2.16667    0.15237   
 O361     O    -2.72499   2.00002    0.00001   
 O362     O    -2.72493   2.66667    0.00001   
 O363     O    -2.72499   2.33333    0.00001   
 O364     O    -2.72503   2.00002    0.15238   
 O365     O    -2.72496   2.66668    0.15238   
 O366     O    -2.72502   2.33333    0.15239   
 Mg367    Mg   -2.71870   2.99999    0.07619   
 Mg368    Mg   -2.71868   2.66669    0.07621   
 Mg369    Mg   -2.71869   2.33339    0.07619   
 Mg370    Mg   -2.71872   2.99998    0.22858   
 Mg371    Mg   -2.71869   2.66668    0.22858   
 Mg372    Mg   -2.71872   2.33338    0.22858   
 Mg373    Mg   -2.71868   2.83334    0.00001   
 Mg374    Mg   -2.71868   2.50003    0.00001   
 Mg375    Mg   -2.71873   2.16668    0.00000   
 Mg376    Mg   -2.71869   2.83333    0.15239   
 Mg377    Mg   -2.71869   2.50004    0.15239   
 Mg378    Mg   -2.71873   2.16670    0.15238   
 O379     O    -2.72500   2.83334    0.07619   
 O380     O    -2.72500   2.50000    0.07619   
 O381     O    -2.72500   2.16667    0.07620   
 O382     O    -2.72504   2.83335    0.22857   
 O383     O    -2.72503   2.50002    0.22857   
 O384     O    -2.72485   2.16666    0.22858   
 O385     O    -2.49369   2.83333    0.00001   
 O386     O    -2.49369   2.50002    0.00001   
 O387     O    -2.49371   2.16668    0.00001   
 O388     O    -2.49371   2.83333    0.15238   
 O389     O    -2.49372   2.50002    0.15238   
 O390     O    -2.49373   2.16668    0.15238   
 O391     O    -2.49368   2.99996    0.07619   
 O392     O    -2.49370   2.66668    0.07620   
 O393     O    -2.49368   2.33340    0.07620   
 O394     O    -2.49370   2.99994    0.22858   
 O395     O    -2.49370   2.66668    0.22858   
 O396     O    -2.49370   2.33342    0.22858   
 Mg397    Mg   -2.49370   2.83336    0.07620   
 Mg398    Mg   -2.49369   2.50000    0.07619   
 Mg399    Mg   -2.49377   2.16668    0.07620   
 Mg400    Mg   -2.49369   2.83336    0.22858   
 Mg401    Mg   -2.49367   2.50000    0.22858   
 Mg402    Mg   -2.49371   2.16668    0.22857   
 Mg403    Mg   -2.49369   2.00006    0.00001   
 Mg404    Mg   -2.49368   2.66668    0.00001   
 Mg405    Mg   -2.49369   2.33329    0.00001   
 Mg406    Mg   -2.49374   2.00007    0.15239   
 Mg407    Mg   -2.49367   2.66668    0.15239   
 Mg408    Mg   -2.49373   2.33329    0.15239   
 O409     O    -2.26240   2.83334    0.07620   
 O410     O    -2.26240   2.50003    0.07620   
 O411     O    -2.26240   2.16668    0.07619   
 O412     O    -2.26237   2.83333    0.22858   
 O413     O    -2.26237   2.50002    0.22858   
 O414     O    -2.26259   2.16669    0.22858   
 O415     O    -2.26238   2.00003    0.00001   
 O416     O    -2.26244   2.66668    0.00001   
 O417     O    -2.26238   2.33333    0.00001   
 O418     O    -2.26241   2.00002    0.15239   
 O419     O    -2.26241   2.66668    0.15239   
 O420     O    -2.26240   2.33334    0.15239   
 Mg421    Mg   -2.26870   2.99998    0.07619   
 Mg422    Mg   -2.26869   2.66667    0.07620   
 Mg423    Mg   -2.26870   2.33336    0.07619   
 Mg424    Mg   -2.26869   2.99999    0.22858   
 Mg425    Mg   -2.26868   2.66668    0.22857   
 Mg426    Mg   -2.26868   2.33337    0.22858   
 Mg427    Mg   -2.26869   2.83333    0.00001   
 Mg428    Mg   -2.26869   2.50001    0.00001   
 Mg429    Mg   -2.26869   2.16667    0.00001   
 Mg430    Mg   -2.26871   2.83333    0.15238   
 Mg431    Mg   -2.26870   2.50001    0.15238   
 Mg432    Mg   -2.26866   2.16667    0.15237   
 O433     O    -3.72499   2.00002    0.00001   
 O434     O    -3.72493   2.66667    0.00001   
 O435     O    -3.72499   2.33333    0.00001   
 O436     O    -3.72503   2.00002    0.15238   
 O437     O    -3.72496   2.66668    0.15238   
 O438     O    -3.72502   2.33333    0.15239   
 Mg439    Mg   -3.71870   2.99999    0.07619   
 Mg440    Mg   -3.71868   2.66669    0.07621   
 Mg441    Mg   -3.71869   2.33339    0.07619   
 Mg442    Mg   -3.71872   2.99998    0.22858   
 Mg443    Mg   -3.71869   2.66668    0.22858   
 Mg444    Mg   -3.71872   2.33338    0.22858   
 Mg445    Mg   -3.71868   2.83334    0.00001   
 Mg446    Mg   -3.71868   2.50003    0.00001   
 Mg447    Mg   -3.71873   2.16668    0.00000   
 Mg448    Mg   -3.71869   2.83333    0.15239   
 Mg449    Mg   -3.71869   2.50004    0.15239   
 Mg450    Mg   -3.71873   2.16670    0.15238   
 O451     O    -3.72500   2.83334    0.07619   
 O452     O    -3.72500   2.50000    0.07619   
 O453     O    -3.72500   2.16667    0.07620   
 O454     O    -3.72504   2.83335    0.22857   
 O455     O    -3.72503   2.50002    0.22857   
 O456     O    -3.72485   2.16666    0.22858   
 O457     O    -3.49369   2.83333    0.00001   
 O458     O    -3.49369   2.50002    0.00001   
 O459     O    -3.49371   2.16668    0.00001   
 O460     O    -3.49371   2.83333    0.15238   
 O461     O    -3.49372   2.50002    0.15238   
 O462     O    -3.49373   2.16668    0.15238   
 O463     O    -3.49368   2.99996    0.07619   
 O464     O    -3.49370   2.66668    0.07620   
 O465     O    -3.49368   2.33340    0.07620   
 O466     O    -3.49370   2.99994    0.22858   
 O467     O    -3.49370   2.66668    0.22858   
 O468     O    -3.49370   2.33342    0.22858   
 Mg469    Mg   -3.49370   2.83336    0.07620   
 Mg470    Mg   -3.49369   2.50000    0.07619   
 Mg471    Mg   -3.49377   2.16668    0.07620   
 Mg472    Mg   -3.49369   2.83336    0.22858   
 Mg473    Mg   -3.49367   2.50000    0.22858   
 Mg474    Mg   -3.49371   2.16668    0.22857   
 Mg475    Mg   -3.49369   2.00006    0.00001   
 Mg476    Mg   -3.49368   2.66668    0.00001   
 Mg477    Mg   -3.49369   2.33329    0.00001   
 Mg478    Mg   -3.49374   2.00007    0.15239   
 Mg479    Mg   -3.49367   2.66668    0.15239   
 Mg480    Mg   -3.49373   2.33329    0.15239   
 O481     O    -3.26240   2.83334    0.07620   
 O482     O    -3.26240   2.50003    0.07620   
 O483     O    -3.26240   2.16668    0.07619   
 O484     O    -3.26237   2.83333    0.22858   
 O485     O    -3.26237   2.50002    0.22858   
 O486     O    -3.26259   2.16669    0.22858   
 O487     O    -3.26238   2.00003    0.00001   
 O488     O    -3.26244   2.66668    0.00001   
 O489     O    -3.26238   2.33333    0.00001   
 O490     O    -3.26241   2.00002    0.15239   
 O491     O    -3.26241   2.66668    0.15239   
 O492     O    -3.26240   2.33334    0.15239   
 Mg493    Mg   -3.26870   2.99998    0.07619   
 Mg494    Mg   -3.26869   2.66667    0.07620   
 Mg495    Mg   -3.26870   2.33336    0.07619   
 Mg496    Mg   -3.26869   2.99999    0.22858   
 Mg497    Mg   -3.26868   2.66668    0.22857   
 Mg498    Mg   -3.26868   2.33337    0.22858   
 Mg499    Mg   -3.26869   2.83333    0.00001   
 Mg500    Mg   -3.26869   2.50001    0.00001   
 Mg501    Mg   -3.26869   2.16667    0.00001   
 Mg502    Mg   -3.26871   2.83333    0.15238   
 Mg503    Mg   -3.26870   2.50001    0.15238   
 Mg504    Mg   -3.26866   2.16667    0.15237   
 O505     O    2.27501    1.00002    0.00001   
 O506     O    2.27507    1.66667    0.00001   
 O507     O    2.27501    1.33333    0.00001   
 O508     O    2.27497    1.00002    0.15238   
 O509     O    2.27504    1.66668    0.15238   
 O510     O    2.27498    1.33333    0.15239   
 Mg511    Mg   2.28130    1.99999    0.07619   
 Mg512    Mg   2.28132    1.66669    0.07621   
 Mg513    Mg   2.28131    1.33339    0.07619   
 Mg514    Mg   2.28128    1.99998    0.22858   
 Mg515    Mg   2.28131    1.66668    0.22858   
 Mg516    Mg   2.28128    1.33338    0.22858   
 Mg517    Mg   2.28132    1.83334    0.00001   
 Mg518    Mg   2.28132    1.50003    0.00001   
 Mg519    Mg   2.28127    1.16668    0.00000   
 Mg520    Mg   2.28131    1.83333    0.15239   
 Mg521    Mg   2.28131    1.50004    0.15239   
 Mg522    Mg   2.28127    1.16670    0.15238   
 O523     O    2.27500    1.83334    0.07619   
 O524     O    2.27500    1.50000    0.07619   
 O525     O    2.27500    1.16667    0.07620   
 O526     O    2.27496    1.83335    0.22857   
 O527     O    2.27497    1.50002    0.22857   
 O528     O    2.27515    1.16666    0.22858   
 O529     O    2.50631    1.83333    0.00001   
 O530     O    2.50631    1.50002    0.00001   
 O531     O    2.50629    1.16668    0.00001   
 O532     O    2.50629    1.83333    0.15238   
 O533     O    2.50628    1.50002    0.15238   
 O534     O    2.50627    1.16668    0.15238   
 O535     O    2.50632    1.99996    0.07619   
 O536     O    2.50630    1.66668    0.07620   
 O537     O    2.50632    1.33340    0.07620   
 O538     O    2.50630    1.99994    0.22858   
 O539     O    2.50630    1.66668    0.22858   
 O540     O    2.50630    1.33342    0.22858   
 Mg541    Mg   2.50630    1.83336    0.07620   
 Mg542    Mg   2.50631    1.50000    0.07619   
 Mg543    Mg   2.50623    1.16668    0.07620   
 Mg544    Mg   2.50631    1.83336    0.22858   
 Mg545    Mg   2.50633    1.50000    0.22858   
 Mg546    Mg   2.50629    1.16668    0.22857   
 Mg547    Mg   2.50631    1.00006    0.00001   
 Mg548    Mg   2.50632    1.66668    0.00001   
 Mg549    Mg   2.50631    1.33329    0.00001   
 Mg550    Mg   2.50626    1.00007    0.15239   
 Mg551    Mg   2.50633    1.66668    0.15239   
 Mg552    Mg   2.50627    1.33329    0.15239   
 O553     O    2.73760    1.83334    0.07620   
 O554     O    2.73760    1.50003    0.07620   
 O555     O    2.73760    1.16668    0.07619   
 O556     O    2.73763    1.83333    0.22858   
 O557     O    2.73763    1.50002    0.22858   
 O558     O    2.73741    1.16669    0.22858   
 O559     O    2.73762    1.00003    0.00001   
 O560     O    2.73756    1.66668    0.00001   
 O561     O    2.73762    1.33333    0.00001   
 O562     O    2.73759    1.00002    0.15239   
 O563     O    2.73759    1.66668    0.15239   
 O564     O    2.73760    1.33334    0.15239   
 Mg565    Mg   2.73130    1.99998    0.07619   
 Mg566    Mg   2.73131    1.66667    0.07620   
 Mg567    Mg   2.73130    1.33336    0.07619   
 Mg568    Mg   2.73131    1.99999    0.22858   
 Mg569    Mg   2.73132    1.66668    0.22857   
 Mg570    Mg   2.73132    1.33337    0.22858   
 Mg571    Mg   2.73131    1.83333    0.00001   
 Mg572    Mg   2.73131    1.50001    0.00001   
 Mg573    Mg   2.73131    1.16667    0.00001   
 Mg574    Mg   2.73129    1.83333    0.15238   
 Mg575    Mg   2.73130    1.50001    0.15238   
 Mg576    Mg   2.73134    1.16667    0.15237   
 O577     O    1.27501    1.00002    0.00001   
 O578     O    1.27507    1.66667    0.00001   
 O579     O    1.27501    1.33333    0.00001   
 O580     O    1.27497    1.00002    0.15238   
 O581     O    1.27504    1.66668    0.15238   
 O582     O    1.27498    1.33333    0.15239   
 Mg583    Mg   1.28130    1.99999    0.07619   
 Mg584    Mg   1.28132    1.66669    0.07621   
 Mg585    Mg   1.28131    1.33339    0.07619   
 Mg586    Mg   1.28128    1.99998    0.22858   
 Mg587    Mg   1.28131    1.66668    0.22858   
 Mg588    Mg   1.28128    1.33338    0.22858   
 Mg589    Mg   1.28132    1.83334    0.00001   
 Mg590    Mg   1.28132    1.50003    0.00001   
 Mg591    Mg   1.28127    1.16668    0.00000   
 Mg592    Mg   1.28131    1.83333    0.15239   
 Mg593    Mg   1.28131    1.50004    0.15239   
 Mg594    Mg   1.28127    1.16670    0.15238   
 O595     O    1.27500    1.83334    0.07619   
 O596     O    1.27500    1.50000    0.07619   
 O597     O    1.27500    1.16667    0.07620   
 O598     O    1.27496    1.83335    0.22857   
 O599     O    1.27497    1.50002    0.22857   
 O600     O    1.27515    1.16666    0.22858   
 O601     O    1.50631    1.83333    0.00001   
 O602     O    1.50631    1.50002    0.00001   
 O603     O    1.50629    1.16668    0.00001   
 O604     O    1.50629    1.83333    0.15238   
 O605     O    1.50628    1.50002    0.15238   
 O606     O    1.50627    1.16668    0.15238   
 O607     O    1.50632    1.99996    0.07619   
 O608     O    1.50630    1.66668    0.07620   
 O609     O    1.50632    1.33340    0.07620   
 O610     O    1.50630    1.99994    0.22858   
 O611     O    1.50630    1.66668    0.22858   
 O612     O    1.50630    1.33342    0.22858   
 Mg613    Mg   1.50630    1.83336    0.07620   
 Mg614    Mg   1.50631    1.50000    0.07619   
 Mg615    Mg   1.50623    1.16668    0.07620   
 Mg616    Mg   1.50631    1.83336    0.22858   
 Mg617    Mg   1.50633    1.50000    0.22858   
 Mg618    Mg   1.50629    1.16668    0.22857   
 Mg619    Mg   1.50631    1.00006    0.00001   
 Mg620    Mg   1.50632    1.66668    0.00001   
 Mg621    Mg   1.50631    1.33329    0.00001   
 Mg622    Mg   1.50626    1.00007    0.15239   
 Mg623    Mg   1.50633    1.66668    0.15239   
 Mg624    Mg   1.50627    1.33329    0.15239   
 O625     O    1.73760    1.83334    0.07620   
 O626     O    1.73760    1.50003    0.07620   
 O627     O    1.73760    1.16668    0.07619   
 O628     O    1.73763    1.83333    0.22858   
 O629     O    1.73763    1.50002    0.22858   
 O630     O    1.73741    1.16669    0.22858   
 O631     O    1.73762    1.00003    0.00001   
 O632     O    1.73756    1.66668    0.00001   
 O633     O    1.73762    1.33333    0.00001   
 O634     O    1.73759    1.00002    0.15239   
 O635     O    1.73759    1.66668    0.15239   
 O636     O    1.73760    1.33334    0.15239   
 Mg637    Mg   1.73130    1.99998    0.07619   
 Mg638    Mg   1.73131    1.66667    0.07620   
 Mg639    Mg   1.73130    1.33336    0.07619   
 Mg640    Mg   1.73131    1.99999    0.22858   
 Mg641    Mg   1.73132    1.66668    0.22857   
 Mg642    Mg   1.73132    1.33337    0.22858   
 Mg643    Mg   1.73131    1.83333    0.00001   
 Mg644    Mg   1.73131    1.50001    0.00001   
 Mg645    Mg   1.73131    1.16667    0.00001   
 Mg646    Mg   1.73129    1.83333    0.15238   
 Mg647    Mg   1.73130    1.50001    0.15238   
 Mg648    Mg   1.73134    1.16667    0.15237   
 O649     O    0.27501    1.00002    0.00001   
 O650     O    0.27507    1.66667    0.00001   
 O651     O    0.27501    1.33333    0.00001   
 O652     O    0.27497    1.00002    0.15238   
 O653     O    0.27504    1.66668    0.15238   
 O654     O    0.27498    1.33333    0.15239   
 Mg655    Mg   0.28130    1.99999    0.07619   
 Mg656    Mg   0.28132    1.66669    0.07621   
 Mg657    Mg   0.28131    1.33339    0.07619   
 Mg658    Mg   0.28128    1.99998    0.22858   
 Mg659    Mg   0.28131    1.66668    0.22858   
 Mg660    Mg   0.28128    1.33338    0.22858   
 Mg661    Mg   0.28132    1.83334    0.00001   
 Mg662    Mg   0.28132    1.50003    0.00001   
 Mg663    Mg   0.28127    1.16668    0.00000   
 Mg664    Mg   0.28131    1.83333    0.15239   
 Mg665    Mg   0.28131    1.50004    0.15239   
 Mg666    Mg   0.28127    1.16670    0.15238   
 O667     O    0.27500    1.83334    0.07619   
 O668     O    0.27500    1.50000    0.07619   
 O669     O    0.27500    1.16667    0.07620   
 O670     O    0.27496    1.83335    0.22857   
 O671     O    0.27497    1.50002    0.22857   
 O672     O    0.27515    1.16666    0.22858   
 O673     O    0.50631    1.83333    0.00001   
 O674     O    0.50631    1.50002    0.00001   
 O675     O    0.50629    1.16668    0.00001   
 O676     O    0.50629    1.83333    0.15238   
 O677     O    0.50628    1.50002    0.15238   
 O678     O    0.50627    1.16668    0.15238   
 O679     O    0.50632    1.99996    0.07619   
 O680     O    0.50630    1.66668    0.07620   
 O681     O    0.50632    1.33340    0.07620   
 O682     O    0.50630    1.99994    0.22858   
 O683     O    0.50630    1.66668    0.22858   
 O684     O    0.50630    1.33342    0.22858   
 Mg685    Mg   0.50630    1.83336    0.07620   
 Mg686    Mg   0.50631    1.50000    0.07619   
 Mg687    Mg   0.50623    1.16668    0.07620   
 Mg688    Mg   0.50631    1.83336    0.22858   
 Mg689    Mg   0.50633    1.50000    0.22858   
 Mg690    Mg   0.50629    1.16668    0.22857   
 Mg691    Mg   0.50631    1.00006    0.00001   
 Mg692    Mg   0.50632    1.66668    0.00001   
 Mg693    Mg   0.50631    1.33329    0.00001   
 Mg694    Mg   0.50626    1.00007    0.15239   
 Mg695    Mg   0.50633    1.66668    0.15239   
 Mg696    Mg   0.50627    1.33329    0.15239   
 O697     O    0.73760    1.83334    0.07620   
 O698     O    0.73760    1.50003    0.07620   
 O699     O    0.73760    1.16668    0.07619   
 O700     O    0.73763    1.83333    0.22858   
 O701     O    0.73763    1.50002    0.22858   
 O702     O    0.73741    1.16669    0.22858   
 O703     O    0.73762    1.00003    0.00001   
 O704     O    0.73756    1.66668    0.00001   
 O705     O    0.73762    1.33333    0.00001   
 O706     O    0.73759    1.00002    0.15239   
 O707     O    0.73759    1.66668    0.15239   
 O708     O    0.73760    1.33334    0.15239   
 Mg709    Mg   0.73130    1.99998    0.07619   
 Mg710    Mg   0.73131    1.66667    0.07620   
 Mg711    Mg   0.73130    1.33336    0.07619   
 Mg712    Mg   0.73131    1.99999    0.22858   
 Mg713    Mg   0.73132    1.66668    0.22857   
 Mg714    Mg   0.73132    1.33337    0.22858   
 Mg715    Mg   0.73131    1.83333    0.00001   
 Mg716    Mg   0.73131    1.50001    0.00001   
 Mg717    Mg   0.73131    1.16667    0.00001   
 Mg718    Mg   0.73129    1.83333    0.15238   
 Mg719    Mg   0.73130    1.50001    0.15238   
 Mg720    Mg   0.73134    1.16667    0.15237   
 O721     O    -0.72499   1.00002    0.00001   
 O722     O    -0.72493   1.66667    0.00001   
 O723     O    -0.72499   1.33333    0.00001   
 O724     O    -0.72503   1.00002    0.15238   
 O725     O    -0.72496   1.66668    0.15238   
 O726     O    -0.72502   1.33333    0.15239   
 Mg727    Mg   -0.71870   1.99999    0.07619   
 Mg728    Mg   -0.71868   1.66669    0.07621   
 Mg729    Mg   -0.71869   1.33339    0.07619   
 Mg730    Mg   -0.71872   1.99998    0.22858   
 Mg731    Mg   -0.71869   1.66668    0.22858   
 Mg732    Mg   -0.71872   1.33338    0.22858   
 Mg733    Mg   -0.71868   1.83334    0.00001   
 Mg734    Mg   -0.71868   1.50003    0.00001   
 Mg735    Mg   -0.71873   1.16668    0.00000   
 Mg736    Mg   -0.71869   1.83333    0.15239   
 Mg737    Mg   -0.71869   1.50004    0.15239   
 Mg738    Mg   -0.71873   1.16670    0.15238   
 O739     O    -0.72500   1.83334    0.07619   
 O740     O    -0.72500   1.50000    0.07619   
 O741     O    -0.72500   1.16667    0.07620   
 O742     O    -0.72504   1.83335    0.22857   
 O743     O    -0.72503   1.50002    0.22857   
 O744     O    -0.72485   1.16666    0.22858   
 O745     O    -0.49369   1.83333    0.00001   
 O746     O    -0.49369   1.50002    0.00001   
 O747     O    -0.49371   1.16668    0.00001   
 O748     O    -0.49371   1.83333    0.15238   
 O749     O    -0.49372   1.50002    0.15238   
 O750     O    -0.49373   1.16668    0.15238   
 O751     O    -0.49368   1.99996    0.07619   
 O752     O    -0.49370   1.66668    0.07620   
 O753     O    -0.49368   1.33340    0.07620   
 O754     O    -0.49370   1.99994    0.22858   
 O755     O    -0.49370   1.66668    0.22858   
 O756     O    -0.49370   1.33342    0.22858   
 Mg757    Mg   -0.49370   1.83336    0.07620   
 Mg758    Mg   -0.49369   1.50000    0.07619   
 Mg759    Mg   -0.49377   1.16668    0.07620   
 Mg760    Mg   -0.49369   1.83336    0.22858   
 Mg761    Mg   -0.49367   1.50000    0.22858   
 Mg762    Mg   -0.49371   1.16668    0.22857   
 Mg763    Mg   -0.49369   1.00006    0.00001   
 Mg764    Mg   -0.49368   1.66668    0.00001   
 Mg765    Mg   -0.49369   1.33329    0.00001   
 Mg766    Mg   -0.49374   1.00007    0.15239   
 Mg767    Mg   -0.49367   1.66668    0.15239   
 Mg768    Mg   -0.49373   1.33329    0.15239   
 O769     O    -0.26240   1.83334    0.07620   
 O770     O    -0.26240   1.50003    0.07620   
 O771     O    -0.26240   1.16668    0.07619   
 O772     O    -0.26237   1.83333    0.22858   
 O773     O    -0.26237   1.50002    0.22858   
 O774     O    -0.26259   1.16669    0.22858   
 O775     O    -0.26238   1.00003    0.00001   
 O776     O    -0.26244   1.66668    0.00001   
 O777     O    -0.26238   1.33333    0.00001   
 O778     O    -0.26241   1.00002    0.15239   
 O779     O    -0.26241   1.66668    0.15239   
 O780     O    -0.26240   1.33334    0.15239   
 Mg781    Mg   -0.26870   1.99998    0.07619   
 Mg782    Mg   -0.26869   1.66667    0.07620   
 Mg783    Mg   -0.26870   1.33336    0.07619   
 Mg784    Mg   -0.26869   1.99999    0.22858   
 Mg785    Mg   -0.26868   1.66668    0.22857   
 Mg786    Mg   -0.26868   1.33337    0.22858   
 Mg787    Mg   -0.26869   1.83333    0.00001   
 Mg788    Mg   -0.26869   1.50001    0.00001   
 Mg789    Mg   -0.26869   1.16667    0.00001   
 Mg790    Mg   -0.26871   1.83333    0.15238   
 Mg791    Mg   -0.26870   1.50001    0.15238   
 Mg792    Mg   -0.26866   1.16667    0.15237   
 O793     O    -1.72499   1.00002    0.00001   
 O794     O    -1.72493   1.66667    0.00001   
 O795     O    -1.72499   1.33333    0.00001   
 O796     O    -1.72503   1.00002    0.15238   
 O797     O    -1.72496   1.66668    0.15238   
 O798     O    -1.72502   1.33333    0.15239   
 Mg799    Mg   -1.71870   1.99999    0.07619   
 Mg800    Mg   -1.71868   1.66669    0.07621   
 Mg801    Mg   -1.71869   1.33339    0.07619   
 Mg802    Mg   -1.71872   1.99998    0.22858   
 Mg803    Mg   -1.71869   1.66668    0.22858   
 Mg804    Mg   -1.71872   1.33338    0.22858   
 Mg805    Mg   -1.71868   1.83334    0.00001   
 Mg806    Mg   -1.71868   1.50003    0.00001   
 Mg807    Mg   -1.71873   1.16668    0.00000   
 Mg808    Mg   -1.71869   1.83333    0.15239   
 Mg809    Mg   -1.71869   1.50004    0.15239   
 Mg810    Mg   -1.71873   1.16670    0.15238   
 O811     O    -1.72500   1.83334    0.07619   
 O812     O    -1.72500   1.50000    0.07619   
 O813     O    -1.72500   1.16667    0.07620   
 O814     O    -1.72504   1.83335    0.22857   
 O815     O    -1.72503   1.50002    0.22857   
 O816     O    -1.72485   1.16666    0.22858   
 O817     O    -1.49369   1.83333    0.00001   
 O818     O    -1.49369   1.50002    0.00001   
 O819     O    -1.49371   1.16668    0.00001   
 O820     O    -1.49371   1.83333    0.15238   
 O821     O    -1.49372   1.50002    0.15238   
 O822     O    -1.49373   1.16668    0.15238   
 O823     O    -1.49368   1.99996    0.07619   
 O824     O    -1.49370   1.66668    0.07620   
 O825     O    -1.49368   1.33340    0.07620   
 O826     O    -1.49370   1.99994    0.22858   
 O827     O    -1.49370   1.66668    0.22858   
 O828     O    -1.49370   1.33342    0.22858   
 Mg829    Mg   -1.49370   1.83336    0.07620   
 Mg830    Mg   -1.49369   1.50000    0.07619   
 Mg831    Mg   -1.49377   1.16668    0.07620   
 Mg832    Mg   -1.49369   1.83336    0.22858   
 Mg833    Mg   -1.49367   1.50000    0.22858   
 Mg834    Mg   -1.49371   1.16668    0.22857   
 Mg835    Mg   -1.49369   1.00006    0.00001   
 Mg836    Mg   -1.49368   1.66668    0.00001   
 Mg837    Mg   -1.49369   1.33329    0.00001   
 Mg838    Mg   -1.49374   1.00007    0.15239   
 Mg839    Mg   -1.49367   1.66668    0.15239   
 Mg840    Mg   -1.49373   1.33329    0.15239   
 O841     O    -1.26240   1.83334    0.07620   
 O842     O    -1.26240   1.50003    0.07620   
 O843     O    -1.26240   1.16668    0.07619   
 O844     O    -1.26237   1.83333    0.22858   
 O845     O    -1.26237   1.50002    0.22858   
 O846     O    -1.26259   1.16669    0.22858   
 O847     O    -1.26238   1.00003    0.00001   
 O848     O    -1.26244   1.66668    0.00001   
 O849     O    -1.26238   1.33333    0.00001   
 O850     O    -1.26241   1.00002    0.15239   
 O851     O    -1.26241   1.66668    0.15239   
 O852     O    -1.26240   1.33334    0.15239   
 Mg853    Mg   -1.26870   1.99998    0.07619   
 Mg854    Mg   -1.26869   1.66667    0.07620   
 Mg855    Mg   -1.26870   1.33336    0.07619   
 Mg856    Mg   -1.26869   1.99999    0.22858   
 Mg857    Mg   -1.26868   1.66668    0.22857   
 Mg858    Mg   -1.26868   1.33337    0.22858   
 Mg859    Mg   -1.26869   1.83333    0.00001   
 Mg860    Mg   -1.26869   1.50001    0.00001   
 Mg861    Mg   -1.26869   1.16667    0.00001   
 Mg862    Mg   -1.26871   1.83333    0.15238   
 Mg863    Mg   -1.26870   1.50001    0.15238   
 Mg864    Mg   -1.26866   1.16667    0.15237   
 O865     O    -2.72499   1.00002    0.00001   
 O866     O    -2.72493   1.66667    0.00001   
 O867     O    -2.72499   1.33333    0.00001   
 O868     O    -2.72503   1.00002    0.15238   
 O869     O    -2.72496   1.66668    0.15238   
 O870     O    -2.72502   1.33333    0.15239   
 Mg871    Mg   -2.71870   1.99999    0.07619   
 Mg872    Mg   -2.71868   1.66669    0.07621   
 Mg873    Mg   -2.71869   1.33339    0.07619   
 Mg874    Mg   -2.71872   1.99998    0.22858   
 Mg875    Mg   -2.71869   1.66668    0.22858   
 Mg876    Mg   -2.71872   1.33338    0.22858   
 Mg877    Mg   -2.71868   1.83334    0.00001   
 Mg878    Mg   -2.71868   1.50003    0.00001   
 Mg879    Mg   -2.71873   1.16668    0.00000   
 Mg880    Mg   -2.71869   1.83333    0.15239   
 Mg881    Mg   -2.71869   1.50004    0.15239   
 Mg882    Mg   -2.71873   1.16670    0.15238   
 O883     O    -2.72500   1.83334    0.07619   
 O884     O    -2.72500   1.50000    0.07619   
 O885     O    -2.72500   1.16667    0.07620   
 O886     O    -2.72504   1.83335    0.22857   
 O887     O    -2.72503   1.50002    0.22857   
 O888     O    -2.72485   1.16666    0.22858   
 O889     O    -2.49369   1.83333    0.00001   
 O890     O    -2.49369   1.50002    0.00001   
 O891     O    -2.49371   1.16668    0.00001   
 O892     O    -2.49371   1.83333    0.15238   
 O893     O    -2.49372   1.50002    0.15238   
 O894     O    -2.49373   1.16668    0.15238   
 O895     O    -2.49368   1.99996    0.07619   
 O896     O    -2.49370   1.66668    0.07620   
 O897     O    -2.49368   1.33340    0.07620   
 O898     O    -2.49370   1.99994    0.22858   
 O899     O    -2.49370   1.66668    0.22858   
 O900     O    -2.49370   1.33342    0.22858   
 Mg901    Mg   -2.49370   1.83336    0.07620   
 Mg902    Mg   -2.49369   1.50000    0.07619   
 Mg903    Mg   -2.49377   1.16668    0.07620   
 Mg904    Mg   -2.49369   1.83336    0.22858   
 Mg905    Mg   -2.49367   1.50000    0.22858   
 Mg906    Mg   -2.49371   1.16668    0.22857   
 Mg907    Mg   -2.49369   1.00006    0.00001   
 Mg908    Mg   -2.49368   1.66668    0.00001   
 Mg909    Mg   -2.49369   1.33329    0.00001   
 Mg910    Mg   -2.49374   1.00007    0.15239   
 Mg911    Mg   -2.49367   1.66668    0.15239   
 Mg912    Mg   -2.49373   1.33329    0.15239   
 O913     O    -2.26240   1.83334    0.07620   
 O914     O    -2.26240   1.50003    0.07620   
 O915     O    -2.26240   1.16668    0.07619   
 O916     O    -2.26237   1.83333    0.22858   
 O917     O    -2.26237   1.50002    0.22858   
 O918     O    -2.26259   1.16669    0.22858   
 O919     O    -2.26238   1.00003    0.00001   
 O920     O    -2.26244   1.66668    0.00001   
 O921     O    -2.26238   1.33333    0.00001   
 O922     O    -2.26241   1.00002    0.15239   
 O923     O    -2.26241   1.66668    0.15239   
 O924     O    -2.26240   1.33334    0.15239   
 Mg925    Mg   -2.26870   1.99998    0.07619   
 Mg926    Mg   -2.26869   1.66667    0.07620   
 Mg927    Mg   -2.26870   1.33336    0.07619   
 Mg928    Mg   -2.26869   1.99999    0.22858   
 Mg929    Mg   -2.26868   1.66668    0.22857   
 Mg930    Mg   -2.26868   1.33337    0.22858   
 Mg931    Mg   -2.26869   1.83333    0.00001   
 Mg932    Mg   -2.26869   1.50001    0.00001   
 Mg933    Mg   -2.26869   1.16667    0.00001   
 Mg934    Mg   -2.26871   1.83333    0.15238   
 Mg935    Mg   -2.26870   1.50001    0.15238   
 Mg936    Mg   -2.26866   1.16667    0.15237   
 O937     O    -3.72499   1.00002    0.00001   
 O938     O    -3.72493   1.66667    0.00001   
 O939     O    -3.72499   1.33333    0.00001   
 O940     O    -3.72503   1.00002    0.15238   
 O941     O    -3.72496   1.66668    0.15238   
 O942     O    -3.72502   1.33333    0.15239   
 Mg943    Mg   -3.71870   1.99999    0.07619   
 Mg944    Mg   -3.71868   1.66669    0.07621   
 Mg945    Mg   -3.71869   1.33339    0.07619   
 Mg946    Mg   -3.71872   1.99998    0.22858   
 Mg947    Mg   -3.71869   1.66668    0.22858   
 Mg948    Mg   -3.71872   1.33338    0.22858   
 Mg949    Mg   -3.71868   1.83334    0.00001   
 Mg950    Mg   -3.71868   1.50003    0.00001   
 Mg951    Mg   -3.71873   1.16668    0.00000   
 Mg952    Mg   -3.71869   1.83333    0.15239   
 Mg953    Mg   -3.71869   1.50004    0.15239   
 Mg954    Mg   -3.71873   1.16670    0.15238   
 O955     O    -3.72500   1.83334    0.07619   
 O956     O    -3.72500   1.50000    0.07619   
 O957     O    -3.72500   1.16667    0.07620   
 O958     O    -3.72504   1.83335    0.22857   
 O959     O    -3.72503   1.50002    0.22857   
 O960     O    -3.72485   1.16666    0.22858   
 O961     O    -3.49369   1.83333    0.00001   
 O962     O    -3.49369   1.50002    0.00001   
 O963     O    -3.49371   1.16668    0.00001   
 O964     O    -3.49371   1.83333    0.15238   
 O965     O    -3.49372   1.50002    0.15238   
 O966     O    -3.49373   1.16668    0.15238   
 O967     O    -3.49368   1.99996    0.07619   
 O968     O    -3.49370   1.66668    0.07620   
 O969     O    -3.49368   1.33340    0.07620   
 O970     O    -3.49370   1.99994    0.22858   
 O971     O    -3.49370   1.66668    0.22858   
 O972     O    -3.49370   1.33342    0.22858   
 Mg973    Mg   -3.49370   1.83336    0.07620   
 Mg974    Mg   -3.49369   1.50000    0.07619   
 Mg975    Mg   -3.49377   1.16668    0.07620   
 Mg976    Mg   -3.49369   1.83336    0.22858   
 Mg977    Mg   -3.49367   1.50000    0.22858   
 Mg978    Mg   -3.49371   1.16668    0.22857   
 Mg979    Mg   -3.49369   1.00006    0.00001   
 Mg980    Mg   -3.49368   1.66668    0.00001   
 Mg981    Mg   -3.49369   1.33329    0.00001   
 Mg982    Mg   -3.49374   1.00007    0.15239   
 Mg983    Mg   -3.49367   1.66668    0.15239   
 Mg984    Mg   -3.49373   1.33329    0.15239   
 O985     O    -3.26240   1.83334    0.07620   
 O986     O    -3.26240   1.50003    0.07620   
 O987     O    -3.26240   1.16668    0.07619   
 O988     O    -3.26237   1.83333    0.22858   
 O989     O    -3.26237   1.50002    0.22858   
 O990     O    -3.26259   1.16669    0.22858   
 O991     O    -3.26238   1.00003    0.00001   
 O992     O    -3.26244   1.66668    0.00001   
 O993     O    -3.26238   1.33333    0.00001   
 O994     O    -3.26241   1.00002    0.15239   
 O995     O    -3.26241   1.66668    0.15239   
 O996     O    -3.26240   1.33334    0.15239   
 Mg997    Mg   -3.26870   1.99998    0.07619   
 Mg998    Mg   -3.26869   1.66667    0.07620   
 Mg999    Mg   -3.26870   1.33336    0.07619   
 Mg1000   Mg   -3.26869   1.99999    0.22858   
 Mg1001   Mg   -3.26868   1.66668    0.22857   
 Mg1002   Mg   -3.26868   1.33337    0.22858   
 Mg1003   Mg   -3.26869   1.83333    0.00001   
 Mg1004   Mg   -3.26869   1.50001    0.00001   
 Mg1005   Mg   -3.26869   1.16667    0.00001   
 Mg1006   Mg   -3.26871   1.83333    0.15238   
 Mg1007   Mg   -3.26870   1.50001    0.15238   
 Mg1008   Mg   -3.26866   1.16667    0.15237   
 O1009    O    2.27501    0.00002    0.00001   
 O1010    O    2.27507    0.66667    0.00001   
 O1011    O    2.27501    0.33333    0.00001   
 O1012    O    2.27497    0.00002    0.15238   
 O1013    O    2.27504    0.66668    0.15238   
 O1014    O    2.27498    0.33333    0.15239   
 Mg1015   Mg   2.28130    0.99999    0.07619   
 Mg1016   Mg   2.28132    0.66669    0.07621   
 Mg1017   Mg   2.28131    0.33339    0.07619   
 Mg1018   Mg   2.28128    0.99998    0.22858   
 Mg1019   Mg   2.28131    0.66668    0.22858   
 Mg1020   Mg   2.28128    0.33338    0.22858   
 Mg1021   Mg   2.28132    0.83334    0.00001   
 Mg1022   Mg   2.28132    0.50003    0.00001   
 Mg1023   Mg   2.28127    0.16668    0.00000   
 Mg1024   Mg   2.28131    0.83333    0.15239   
 Mg1025   Mg   2.28131    0.50004    0.15239   
 Mg1026   Mg   2.28127    0.16670    0.15238   
 O1027    O    2.27500    0.83334    0.07619   
 O1028    O    2.27500    0.50000    0.07619   
 O1029    O    2.27500    0.16667    0.07620   
 O1030    O    2.27496    0.83335    0.22857   
 O1031    O    2.27497    0.50002    0.22857   
 O1032    O    2.27515    0.16666    0.22858   
 O1033    O    2.50631    0.83333    0.00001   
 O1034    O    2.50631    0.50002    0.00001   
 O1035    O    2.50629    0.16668    0.00001   
 O1036    O    2.50629    0.83333    0.15238   
 O1037    O    2.50628    0.50002    0.15238   
 O1038    O    2.50627    0.16668    0.15238   
 O1039    O    2.50632    0.99996    0.07619   
 O1040    O    2.50630    0.66668    0.07620   
 O1041    O    2.50632    0.33340    0.07620   
 O1042    O    2.50630    0.99994    0.22858   
 O1043    O    2.50630    0.66668    0.22858   
 O1044    O    2.50630    0.33342    0.22858   
 Mg1045   Mg   2.50630    0.83336    0.07620   
 Mg1046   Mg   2.50631    0.50000    0.07619   
 Mg1047   Mg   2.50623    0.16668    0.07620   
 Mg1048   Mg   2.50631    0.83336    0.22858   
 Mg1049   Mg   2.50633    0.50000    0.22858   
 Mg1050   Mg   2.50629    0.16668    0.22857   
 Mg1051   Mg   2.50631    0.00006    0.00001   
 Mg1052   Mg   2.50632    0.66668    0.00001   
 Mg1053   Mg   2.50631    0.33329    0.00001   
 Mg1054   Mg   2.50626    0.00007    0.15239   
 Mg1055   Mg   2.50633    0.66668    0.15239   
 Mg1056   Mg   2.50627    0.33329    0.15239   
 O1057    O    2.73760    0.83334    0.07620   
 O1058    O    2.73760    0.50003    0.07620   
 O1059    O    2.73760    0.16668    0.07619   
 O1060    O    2.73763    0.83333    0.22858   
 O1061    O    2.73763    0.50002    0.22858   
 O1062    O    2.73741    0.16669    0.22858   
 O1063    O    2.73762    0.00003    0.00001   
 O1064    O    2.73756    0.66668    0.00001   
 O1065    O    2.73762    0.33333    0.00001   
 O1066    O    2.73759    0.00002    0.15239   
 O1067    O    2.73759    0.66668    0.15239   
 O1068    O    2.73760    0.33334    0.15239   
 Mg1069   Mg   2.73130    0.99998    0.07619   
 Mg1070   Mg   2.73131    0.66667    0.07620   
 Mg1071   Mg   2.73130    0.33336    0.07619   
 Mg1072   Mg   2.73131    0.99999    0.22858   
 Mg1073   Mg   2.73132    0.66668    0.22857   
 Mg1074   Mg   2.73132    0.33337    0.22858   
 Mg1075   Mg   2.73131    0.83333    0.00001   
 Mg1076   Mg   2.73131    0.50001    0.00001   
 Mg1077   Mg   2.73131    0.16667    0.00001   
 Mg1078   Mg   2.73129    0.83333    0.15238   
 Mg1079   Mg   2.73130    0.50001    0.15238   
 Mg1080   Mg   2.73134    0.16667    0.15237   
 O1081    O    1.27501    0.00002    0.00001   
 O1082    O    1.27507    0.66667    0.00001   
 O1083    O    1.27501    0.33333    0.00001   
 O1084    O    1.27497    0.00002    0.15238   
 O1085    O    1.27504    0.66668    0.15238   
 O1086    O    1.27498    0.33333    0.15239   
 Mg1087   Mg   1.28130    0.99999    0.07619   
 Mg1088   Mg   1.28132    0.66669    0.07621   
 Mg1089   Mg   1.28131    0.33339    0.07619   
 Mg1090   Mg   1.28128    0.99998    0.22858   
 Mg1091   Mg   1.28131    0.66668    0.22858   
 Mg1092   Mg   1.28128    0.33338    0.22858   
 Mg1093   Mg   1.28132    0.83334    0.00001   
 Mg1094   Mg   1.28132    0.50003    0.00001   
 Mg1095   Mg   1.28127    0.16668    0.00000   
 Mg1096   Mg   1.28131    0.83333    0.15239   
 Mg1097   Mg   1.28131    0.50004    0.15239   
 Mg1098   Mg   1.28127    0.16670    0.15238   
 O1099    O    1.27500    0.83334    0.07619   
 O1100    O    1.27500    0.50000    0.07619   
 O1101    O    1.27500    0.16667    0.07620   
 O1102    O    1.27496    0.83335    0.22857   
 O1103    O    1.27497    0.50002    0.22857   
 O1104    O    1.27515    0.16666    0.22858   
 O1105    O    1.50631    0.83333    0.00001   
 O1106    O    1.50631    0.50002    0.00001   
 O1107    O    1.50629    0.16668    0.00001   
 O1108    O    1.50629    0.83333    0.15238   
 O1109    O    1.50628    0.50002    0.15238   
 O1110    O    1.50627    0.16668    0.15238   
 O1111    O    1.50632    0.99996    0.07619   
 O1112    O    1.50630    0.66668    0.07620   
 O1113    O    1.50632    0.33340    0.07620   
 O1114    O    1.50630    0.99994    0.22858   
 O1115    O    1.50630    0.66668    0.22858   
 O1116    O    1.50630    0.33342    0.22858   
 Mg1117   Mg   1.50630    0.83336    0.07620   
 Mg1118   Mg   1.50631    0.50000    0.07619   
 Mg1119   Mg   1.50623    0.16668    0.07620   
 Mg1120   Mg   1.50631    0.83336    0.22858   
 Mg1121   Mg   1.50633    0.50000    0.22858   
 Mg1122   Mg   1.50629    0.16668    0.22857   
 Mg1123   Mg   1.50631    0.00006    0.00001   
 Mg1124   Mg   1.50632    0.66668    0.00001   
 Mg1125   Mg   1.50631    0.33329    0.00001   
 Mg1126   Mg   1.50626    0.00007    0.15239   
 Mg1127   Mg   1.50633    0.66668    0.15239   
 Mg1128   Mg   1.50627    0.33329    0.15239   
 O1129    O    1.73760    0.83334    0.07620   
 O1130    O    1.73760    0.50003    0.07620   
 O1131    O    1.73760    0.16668    0.07619   
 O1132    O    1.73763    0.83333    0.22858   
 O1133    O    1.73763    0.50002    0.22858   
 O1134    O    1.73741    0.16669    0.22858   
 O1135    O    1.73762    0.00003    0.00001   
 O1136    O    1.73756    0.66668    0.00001   
 O1137    O    1.73762    0.33333    0.00001   
 O1138    O    1.73759    0.00002    0.15239   
 O1139    O    1.73759    0.66668    0.15239   
 O1140    O    1.73760    0.33334    0.15239   
 Mg1141   Mg   1.73130    0.99998    0.07619   
 Mg1142   Mg   1.73131    0.66667    0.07620   
 Mg1143   Mg   1.73130    0.33336    0.07619   
 Mg1144   Mg   1.73131    0.99999    0.22858   
 Mg1145   Mg   1.73132    0.66668    0.22857   
 Mg1146   Mg   1.73132    0.33337    0.22858   
 Mg1147   Mg   1.73131    0.83333    0.00001   
 Mg1148   Mg   1.73131    0.50001    0.00001   
 Mg1149   Mg   1.73131    0.16667    0.00001   
 Mg1150   Mg   1.73129    0.83333    0.15238   
 Mg1151   Mg   1.73130    0.50001    0.15238   
 Mg1152   Mg   1.73134    0.16667    0.15237   
 O1153    O    0.27501    0.00002    0.00001   
 O1154    O    0.27507    0.66667    0.00001   
 O1155    O    0.27501    0.33333    0.00001   
 O1156    O    0.27497    0.00002    0.15238   
 O1157    O    0.27504    0.66668    0.15238   
 O1158    O    0.27498    0.33333    0.15239   
 Mg1159   Mg   0.28130    0.99999    0.07619   
 Mg1160   Mg   0.28132    0.66669    0.07621   
 Mg1161   Mg   0.28131    0.33339    0.07619   
 Mg1162   Mg   0.28128    0.99998    0.22858   
 Mg1163   Mg   0.28131    0.66668    0.22858   
 Mg1164   Mg   0.28128    0.33338    0.22858   
 Mg1165   Mg   0.28132    0.83334    0.00001   
 Mg1166   Mg   0.28132    0.50003    0.00001   
 Mg1167   Mg   0.28127    0.16668    0.00000   
 Mg1168   Mg   0.28131    0.83333    0.15239   
 Mg1169   Mg   0.28131    0.50004    0.15239   
 Mg1170   Mg   0.28127    0.16670    0.15238   
 O1171    O    0.27500    0.83334    0.07619   
 O1172    O    0.27500    0.50000    0.07619   
 O1173    O    0.27500    0.16667    0.07620   
 O1174    O    0.27496    0.83335    0.22857   
 O1175    O    0.27497    0.50002    0.22857   
 O1176    O    0.27515    0.16666    0.22858   
 O1177    O    0.50631    0.83333    0.00001   
 O1178    O    0.50631    0.50002    0.00001   
 O1179    O    0.50629    0.16668    0.00001   
 O1180    O    0.50629    0.83333    0.15238   
 O1181    O    0.50628    0.50002    0.15238   
 O1182    O    0.50627    0.16668    0.15238   
 O1183    O    0.50632    0.99996    0.07619   
 O1184    O    0.50630    0.66668    0.07620   
 O1185    O    0.50632    0.33340    0.07620   
 O1186    O    0.50630    0.99994    0.22858   
 O1187    O    0.50630    0.66668    0.22858   
 O1188    O    0.50630    0.33342    0.22858   
 Mg1189   Mg   0.50630    0.83336    0.07620   
 Mg1190   Mg   0.50631    0.50000    0.07619   
 Mg1191   Mg   0.50623    0.16668    0.07620   
 Mg1192   Mg   0.50631    0.83336    0.22858   
 Mg1193   Mg   0.50633    0.50000    0.22858   
 Mg1194   Mg   0.50629    0.16668    0.22857   
 Mg1195   Mg   0.50631    0.00006    0.00001   
 Mg1196   Mg   0.50632    0.66668    0.00001   
 Mg1197   Mg   0.50631    0.33329    0.00001   
 Mg1198   Mg   0.50626    0.00007    0.15239   
 Mg1199   Mg   0.50633    0.66668    0.15239   
 Mg1200   Mg   0.50627    0.33329    0.15239   
 O1201    O    0.73760    0.83334    0.07620   
 O1202    O    0.73760    0.50003    0.07620   
 O1203    O    0.73760    0.16668    0.07619   
 O1204    O    0.73763    0.83333    0.22858   
 O1205    O    0.73763    0.50002    0.22858   
 O1206    O    0.73741    0.16669    0.22858   
 O1207    O    0.73762    0.00003    0.00001   
 O1208    O    0.73756    0.66668    0.00001   
 O1209    O    0.73762    0.33333    0.00001   
 O1210    O    0.73759    0.00002    0.15239   
 O1211    O    0.73759    0.66668    0.15239   
 O1212    O    0.73760    0.33334    0.15239   
 Mg1213   Mg   0.73130    0.99998    0.07619   
 Mg1214   Mg   0.73131    0.66667    0.07620   
 Mg1215   Mg   0.73130    0.33336    0.07619   
 Mg1216   Mg   0.73131    0.99999    0.22858   
 Mg1217   Mg   0.73132    0.66668    0.22857   
 Mg1218   Mg   0.73132    0.33337    0.22858   
 Mg1219   Mg   0.73131    0.83333    0.00001   
 Mg1220   Mg   0.73131    0.50001    0.00001   
 Mg1221   Mg   0.73131    0.16667    0.00001   
 Mg1222   Mg   0.73129    0.83333    0.15238   
 Mg1223   Mg   0.73130    0.50001    0.15238   
 Mg1224   Mg   0.73134    0.16667    0.15237   
 O1225    O    -0.72499   0.00002    0.00001   
 O1226    O    -0.72493   0.66667    0.00001   
 O1227    O    -0.72499   0.33333    0.00001   
 O1228    O    -0.72503   0.00002    0.15238   
 O1229    O    -0.72496   0.66668    0.15238   
 O1230    O    -0.72502   0.33333    0.15239   
 Mg1231   Mg   -0.71870   0.99999    0.07619   
 Mg1232   Mg   -0.71868   0.66669    0.07621   
 Mg1233   Mg   -0.71869   0.33339    0.07619   
 Mg1234   Mg   -0.71872   0.99998    0.22858   
 Mg1235   Mg   -0.71869   0.66668    0.22858   
 Mg1236   Mg   -0.71872   0.33338    0.22858   
 Mg1237   Mg   -0.71868   0.83334    0.00001   
 Mg1238   Mg   -0.71868   0.50003    0.00001   
 Mg1239   Mg   -0.71873   0.16668    0.00000   
 Mg1240   Mg   -0.71869   0.83333    0.15239   
 Mg1241   Mg   -0.71869   0.50004    0.15239   
 Mg1242   Mg   -0.71873   0.16670    0.15238   
 O1243    O    -0.72500   0.83334    0.07619   
 O1244    O    -0.72500   0.50000    0.07619   
 O1245    O    -0.72500   0.16667    0.07620   
 O1246    O    -0.72504   0.83335    0.22857   
 O1247    O    -0.72503   0.50002    0.22857   
 O1248    O    -0.72485   0.16666    0.22858   
 O1249    O    -0.49369   0.83333    0.00001   
 O1250    O    -0.49369   0.50002    0.00001   
 O1251    O    -0.49371   0.16668    0.00001   
 O1252    O    -0.49371   0.83333    0.15238   
 O1253    O    -0.49372   0.50002    0.15238   
 O1254    O    -0.49373   0.16668    0.15238   
 O1255    O    -0.49368   0.99996    0.07619   
 O1256    O    -0.49370   0.66668    0.07620   
 O1257    O    -0.49368   0.33340    0.07620   
 O1258    O    -0.49370   0.99994    0.22858   
 O1259    O    -0.49370   0.66668    0.22858   
 O1260    O    -0.49370   0.33342    0.22858   
 Mg1261   Mg   -0.49370   0.83336    0.07620   
 Mg1262   Mg   -0.49369   0.50000    0.07619   
 Mg1263   Mg   -0.49377   0.16668    0.07620   
 Mg1264   Mg   -0.49369   0.83336    0.22858   
 Mg1265   Mg   -0.49367   0.50000    0.22858   
 Mg1266   Mg   -0.49371   0.16668    0.22857   
 Mg1267   Mg   -0.49369   0.00006    0.00001   
 Mg1268   Mg   -0.49368   0.66668    0.00001   
 Mg1269   Mg   -0.49369   0.33329    0.00001   
 Mg1270   Mg   -0.49374   0.00007    0.15239   
 Mg1271   Mg   -0.49367   0.66668    0.15239   
 Mg1272   Mg   -0.49373   0.33329    0.15239   
 O1273    O    -0.26240   0.83334    0.07620   
 O1274    O    -0.26240   0.50003    0.07620   
 O1275    O    -0.26240   0.16668    0.07619   
 O1276    O    -0.26237   0.83333    0.22858   
 O1277    O    -0.26237   0.50002    0.22858   
 O1278    O    -0.26259   0.16669    0.22858   
 O1279    O    -0.26238   0.00003    0.00001   
 O1280    O    -0.26244   0.66668    0.00001   
 O1281    O    -0.26238   0.33333    0.00001   
 O1282    O    -0.26241   0.00002    0.15239   
 O1283    O    -0.26241   0.66668    0.15239   
 O1284    O    -0.26240   0.33334    0.15239   
 Mg1285   Mg   -0.26870   0.99998    0.07619   
 Mg1286   Mg   -0.26869   0.66667    0.07620   
 Mg1287   Mg   -0.26870   0.33336    0.07619   
 Mg1288   Mg   -0.26869   0.99999    0.22858   
 Mg1289   Mg   -0.26868   0.66668    0.22857   
 Mg1290   Mg   -0.26868   0.33337    0.22858   
 Mg1291   Mg   -0.26869   0.83333    0.00001   
 Mg1292   Mg   -0.26869   0.50001    0.00001   
 Mg1293   Mg   -0.26869   0.16667    0.00001   
 Mg1294   Mg   -0.26871   0.83333    0.15238   
 Mg1295   Mg   -0.26870   0.50001    0.15238   
 Mg1296   Mg   -0.26866   0.16667    0.15237   
 O1297    O    -1.72499   0.00002    0.00001   
 O1298    O    -1.72493   0.66667    0.00001   
 O1299    O    -1.72499   0.33333    0.00001   
 O1300    O    -1.72503   0.00002    0.15238   
 O1301    O    -1.72496   0.66668    0.15238   
 O1302    O    -1.72502   0.33333    0.15239   
 Mg1303   Mg   -1.71870   0.99999    0.07619   
 Mg1304   Mg   -1.71868   0.66669    0.07621   
 Mg1305   Mg   -1.71869   0.33339    0.07619   
 Mg1306   Mg   -1.71872   0.99998    0.22858   
 Mg1307   Mg   -1.71869   0.66668    0.22858   
 Mg1308   Mg   -1.71872   0.33338    0.22858   
 Mg1309   Mg   -1.71868   0.83334    0.00001   
 Mg1310   Mg   -1.71868   0.50003    0.00001   
 Mg1311   Mg   -1.71873   0.16668    0.00000   
 Mg1312   Mg   -1.71869   0.83333    0.15239   
 Mg1313   Mg   -1.71869   0.50004    0.15239   
 Mg1314   Mg   -1.71873   0.16670    0.15238   
 O1315    O    -1.72500   0.83334    0.07619   
 O1316    O    -1.72500   0.50000    0.07619   
 O1317    O    -1.72500   0.16667    0.07620   
 O1318    O    -1.72504   0.83335    0.22857   
 O1319    O    -1.72503   0.50002    0.22857   
 O1320    O    -1.72485   0.16666    0.22858   
 O1321    O    -1.49369   0.83333    0.00001   
 O1322    O    -1.49369   0.50003    0.00001   
 O1323    O    -1.49371   0.16668    0.00001   
 O1324    O    -1.49371   0.83333    0.15238   
 O1325    O    -1.49372   0.50002    0.15238   
 O1326    O    -1.49373   0.16668    0.15238   
 O1327    O    -1.49368   0.99996    0.07619   
 O1328    O    -1.49370   0.66668    0.07620   
 O1329    O    -1.49368   0.33340    0.07620   
 O1330    O    -1.49370   0.99994    0.22858   
 O1331    O    -1.49370   0.66668    0.22858   
 O1332    O    -1.49370   0.33342    0.22858   
 Mg1333   Mg   -1.49370   0.83336    0.07620   
 Mg1334   Mg   -1.49369   0.50000    0.07619   
 Mg1335   Mg   -1.49377   0.16668    0.07620   
 Mg1336   Mg   -1.49369   0.83336    0.22858   
 Mg1337   Mg   -1.49367   0.50000    0.22858   
 Mg1338   Mg   -1.49371   0.16668    0.22857   
 Mg1339   Mg   -1.49369   0.00006    0.00001   
 Mg1340   Mg   -1.49368   0.66668    0.00001   
 Mg1341   Mg   -1.49369   0.33329    0.00001   
 Mg1342   Mg   -1.49374   0.00007    0.15239   
 Mg1343   Mg   -1.49367   0.66668    0.15239   
 Mg1344   Mg   -1.49373   0.33329    0.15239   
 O1345    O    -1.26240   0.83334    0.07620   
 O1346    O    -1.26240   0.50003    0.07620   
 O1347    O    -1.26240   0.16668    0.07619   
 O1348    O    -1.26237   0.83333    0.22858   
 O1349    O    -1.26237   0.50002    0.22858   
 O1350    O    -1.26259   0.16669    0.22858   
 O1351    O    -1.26238   0.00003    0.00001   
 O1352    O    -1.26244   0.66668    0.00001   
 O1353    O    -1.26238   0.33333    0.00001   
 O1354    O    -1.26241   0.00002    0.15239   
 O1355    O    -1.26241   0.66668    0.15239   
 O1356    O    -1.26240   0.33334    0.15239   
 Mg1357   Mg   -1.26870   0.99998    0.07619   
 Mg1358   Mg   -1.26869   0.66667    0.07620   
 Mg1359   Mg   -1.26870   0.33336    0.07619   
 Mg1360   Mg   -1.26869   0.99999    0.22858   
 Mg1361   Mg   -1.26868   0.66668    0.22857   
 Mg1362   Mg   -1.26868   0.33337    0.22858   
 Mg1363   Mg   -1.26869   0.83333    0.00001   
 Mg1364   Mg   -1.26869   0.50001    0.00001   
 Mg1365   Mg   -1.26869   0.16667    0.00001   
 Mg1366   Mg   -1.26871   0.83333    0.15238   
 Mg1367   Mg   -1.26870   0.50001    0.15238   
 Mg1368   Mg   -1.26866   0.16667    0.15237   
 O1369    O    -2.72499   0.00002    0.00001   
 O1370    O    -2.72493   0.66667    0.00001   
 O1371    O    -2.72499   0.33333    0.00001   
 O1372    O    -2.72503   0.00002    0.15238   
 O1373    O    -2.72496   0.66668    0.15238   
 O1374    O    -2.72502   0.33333    0.15239   
 Mg1375   Mg   -2.71870   0.99999    0.07619   
 Mg1376   Mg   -2.71868   0.66669    0.07621   
 Mg1377   Mg   -2.71869   0.33339    0.07619   
 Mg1378   Mg   -2.71872   0.99998    0.22858   
 Mg1379   Mg   -2.71869   0.66668    0.22858   
 Mg1380   Mg   -2.71872   0.33338    0.22858   
 Mg1381   Mg   -2.71868   0.83334    0.00001   
 Mg1382   Mg   -2.71868   0.50003    0.00001   
 Mg1383   Mg   -2.71873   0.16668    0.00000   
 Mg1384   Mg   -2.71869   0.83333    0.15239   
 Mg1385   Mg   -2.71869   0.50004    0.15239   
 Mg1386   Mg   -2.71873   0.16670    0.15238   
 O1387    O    -2.72500   0.83334    0.07619   
 O1388    O    -2.72500   0.50000    0.07619   
 O1389    O    -2.72500   0.16667    0.07620   
 O1390    O    -2.72504   0.83335    0.22857   
 O1391    O    -2.72503   0.50002    0.22857   
 O1392    O    -2.72485   0.16666    0.22858   
 O1393    O    -2.49369   0.83333    0.00001   
 O1394    O    -2.49369   0.50002    0.00001   
 O1395    O    -2.49371   0.16668    0.00001   
 O1396    O    -2.49371   0.83333    0.15238   
 O1397    O    -2.49372   0.50002    0.15238   
 O1398    O    -2.49373   0.16668    0.15238   
 O1399    O    -2.49368   0.99996    0.07619   
 O1400    O    -2.49370   0.66668    0.07620   
 O1401    O    -2.49368   0.33340    0.07620   
 O1402    O    -2.49370   0.99994    0.22858   
 O1403    O    -2.49370   0.66668    0.22858   
 O1404    O    -2.49370   0.33342    0.22858   
 Mg1405   Mg   -2.49370   0.83336    0.07620   
 Mg1406   Mg   -2.49369   0.50000    0.07619   
 Mg1407   Mg   -2.49377   0.16668    0.07620   
 Mg1408   Mg   -2.49369   0.83336    0.22858   
 Mg1409   Mg   -2.49367   0.50000    0.22858   
 Mg1410   Mg   -2.49371   0.16668    0.22857   
 Mg1411   Mg   -2.49369   0.00006    0.00001   
 Mg1412   Mg   -2.49368   0.66668    0.00001   
 Mg1413   Mg   -2.49369   0.33329    0.00001   
 Mg1414   Mg   -2.49374   0.00007    0.15239   
 Mg1415   Mg   -2.49367   0.66668    0.15239   
 Mg1416   Mg   -2.49373   0.33329    0.15239   
 O1417    O    -2.26240   0.83334    0.07620   
 O1418    O    -2.26240   0.50003    0.07620   
 O1419    O    -2.26240   0.16668    0.07619   
 O1420    O    -2.26237   0.83333    0.22858   
 O1421    O    -2.26237   0.50002    0.22858   
 O1422    O    -2.26259   0.16669    0.22858   
 O1423    O    -2.26238   0.00003    0.00001   
 O1424    O    -2.26244   0.66668    0.00001   
 O1425    O    -2.26238   0.33333    0.00001   
 O1426    O    -2.26241   0.00002    0.15239   
 O1427    O    -2.26241   0.66668    0.15239   
 O1428    O    -2.26240   0.33334    0.15239   
 Mg1429   Mg   -2.26870   0.99998    0.07619   
 Mg1430   Mg   -2.26869   0.66667    0.07620   
 Mg1431   Mg   -2.26870   0.33336    0.07619   
 Mg1432   Mg   -2.26869   0.99999    0.22858   
 Mg1433   Mg   -2.26868   0.66668    0.22857   
 Mg1434   Mg   -2.26868   0.33337    0.22858   
 Mg1435   Mg   -2.26869   0.83333    0.00001   
 Mg1436   Mg   -2.26869   0.50001    0.00001   
 Mg1437   Mg   -2.26869   0.16667    0.00001   
 Mg1438   Mg   -2.26871   0.83333    0.15238   
 Mg1439   Mg   -2.26870   0.50001    0.15238   
 Mg1440   Mg   -2.26866   0.16667    0.15237   
 O1441    O    -3.72499   0.00002    0.00001   
 O1442    O    -3.72493   0.66667    0.00001   
 O1443    O    -3.72499   0.33333    0.00001   
 O1444    O    -3.72503   0.00002    0.15238   
 O1445    O    -3.72496   0.66668    0.15238   
 O1446    O    -3.72502   0.33333    0.15239   
 Mg1447   Mg   -3.71870   0.99999    0.07619   
 Mg1448   Mg   -3.71868   0.66669    0.07621   
 Mg1449   Mg   -3.71869   0.33339    0.07619   
 Mg1450   Mg   -3.71872   0.99998    0.22858   
 Mg1451   Mg   -3.71869   0.66668    0.22858   
 Mg1452   Mg   -3.71872   0.33338    0.22858   
 Mg1453   Mg   -3.71868   0.83334    0.00001   
 Mg1454   Mg   -3.71868   0.50003    0.00001   
 Mg1455   Mg   -3.71873   0.16668    0.00000   
 Mg1456   Mg   -3.71869   0.83333    0.15239   
 Mg1457   Mg   -3.71869   0.50004    0.15239   
 Mg1458   Mg   -3.71873   0.16670    0.15238   
 O1459    O    -3.72500   0.83334    0.07619   
 O1460    O    -3.72500   0.50000    0.07619   
 O1461    O    -3.72500   0.16667    0.07620   
 O1462    O    -3.72504   0.83335    0.22857   
 O1463    O    -3.72503   0.50002    0.22857   
 O1464    O    -3.72485   0.16666    0.22858   
 O1465    O    -3.49369   0.83333    0.00001   
 O1466    O    -3.49369   0.50002    0.00001   
 O1467    O    -3.49371   0.16668    0.00001   
 O1468    O    -3.49371   0.83333    0.15238   
 O1469    O    -3.49372   0.50002    0.15238   
 O1470    O    -3.49373   0.16668    0.15238   
 O1471    O    -3.49368   0.99996    0.07619   
 O1472    O    -3.49370   0.66668    0.07620   
 O1473    O    -3.49368   0.33340    0.07620   
 O1474    O    -3.49370   0.99994    0.22858   
 O1475    O    -3.49370   0.66668    0.22858   
 O1476    O    -3.49370   0.33342    0.22858   
 Mg1477   Mg   -3.49370   0.83336    0.07620   
 Mg1478   Mg   -3.49369   0.50000    0.07619   
 Mg1479   Mg   -3.49377   0.16668    0.07620   
 Mg1480   Mg   -3.49369   0.83336    0.22858   
 Mg1481   Mg   -3.49367   0.50000    0.22858   
 Mg1482   Mg   -3.49371   0.16668    0.22857   
 Mg1483   Mg   -3.49369   0.00006    0.00001   
 Mg1484   Mg   -3.49368   0.66668    0.00001   
 Mg1485   Mg   -3.49369   0.33329    0.00001   
 Mg1486   Mg   -3.49374   0.00007    0.15239   
 Mg1487   Mg   -3.49367   0.66668    0.15239   
 Mg1488   Mg   -3.49373   0.33329    0.15239   
 O1489    O    -3.26240   0.83334    0.07620   
 O1490    O    -3.26240   0.50003    0.07620   
 O1491    O    -3.26240   0.16668    0.07619   
 O1492    O    -3.26237   0.83333    0.22858   
 O1493    O    -3.26237   0.50002    0.22858   
 O1494    O    -3.26259   0.16669    0.22858   
 O1495    O    -3.26238   0.00003    0.00001   
 O1496    O    -3.26244   0.66668    0.00001   
 O1497    O    -3.26238   0.33333    0.00001   
 O1498    O    -3.26241   0.00002    0.15239   
 O1499    O    -3.26241   0.66668    0.15239   
 O1500    O    -3.26240   0.33334    0.15239   
 Mg1501   Mg   -3.26870   0.99998    0.07619   
 Mg1502   Mg   -3.26869   0.66667    0.07620   
 Mg1503   Mg   -3.26870   0.33336    0.07619   
 Mg1504   Mg   -3.26869   0.99999    0.22858   
 Mg1505   Mg   -3.26868   0.66668    0.22857   
 Mg1506   Mg   -3.26868   0.33337    0.22858   
 Mg1507   Mg   -3.26869   0.83333    0.00001   
 Mg1508   Mg   -3.26869   0.50001    0.00001   
 Mg1509   Mg   -3.26869   0.16667    0.00001   
 Mg1510   Mg   -3.26871   0.83333    0.15238   
 Mg1511   Mg   -3.26870   0.50001    0.15238   
 Mg1512   Mg   -3.26866   0.16667    0.15237   
 O1513    O    2.27501    -0.99998   0.00001   
 O1514    O    2.27507    -0.33333   0.00001   
 O1515    O    2.27501    -0.66667   0.00001   
 O1516    O    2.27497    -0.99998   0.15238   
 O1517    O    2.27504    -0.33332   0.15238   
 O1518    O    2.27498    -0.66667   0.15239   
 Mg1519   Mg   2.28130    -0.00001   0.07619   
 Mg1520   Mg   2.28132    -0.33331   0.07621   
 Mg1521   Mg   2.28131    -0.66661   0.07619   
 Mg1522   Mg   2.28128    -0.00002   0.22858   
 Mg1523   Mg   2.28131    -0.33332   0.22858   
 Mg1524   Mg   2.28128    -0.66662   0.22858   
 Mg1525   Mg   2.28132    -0.16666   0.00001   
 Mg1526   Mg   2.28132    -0.49997   0.00001   
 Mg1527   Mg   2.28127    -0.83332   0.00000   
 Mg1528   Mg   2.28131    -0.16667   0.15239   
 Mg1529   Mg   2.28131    -0.49996   0.15239   
 Mg1530   Mg   2.28127    -0.83330   0.15238   
 O1531    O    2.27500    -0.16666   0.07619   
 O1532    O    2.27500    -0.50000   0.07619   
 O1533    O    2.27500    -0.83333   0.07620   
 O1534    O    2.27496    -0.16665   0.22857   
 O1535    O    2.27497    -0.49998   0.22857   
 O1536    O    2.27515    -0.83334   0.22858   
 O1537    O    2.50631    -0.16667   0.00001   
 O1538    O    2.50631    -0.49997   0.00001   
 O1539    O    2.50629    -0.83332   0.00001   
 O1540    O    2.50629    -0.16667   0.15238   
 O1541    O    2.50628    -0.49998   0.15238   
 O1542    O    2.50627    -0.83332   0.15238   
 O1543    O    2.50632    -0.00004   0.07619   
 O1544    O    2.50630    -0.33332   0.07620   
 O1545    O    2.50632    -0.66660   0.07620   
 O1546    O    2.50630    -0.00006   0.22858   
 O1547    O    2.50630    -0.33332   0.22858   
 O1548    O    2.50630    -0.66658   0.22858   
 Mg1549   Mg   2.50630    -0.16664   0.07620   
 Mg1550   Mg   2.50631    -0.50000   0.07619   
 Mg1551   Mg   2.50623    -0.83332   0.07620   
 Mg1552   Mg   2.50631    -0.16664   0.22858   
 Mg1553   Mg   2.50633    -0.50000   0.22858   
 Mg1554   Mg   2.50629    -0.83332   0.22857   
 Mg1555   Mg   2.50631    -0.99994   0.00001   
 Mg1556   Mg   2.50632    -0.33332   0.00001   
 Mg1557   Mg   2.50631    -0.66671   0.00001   
 Mg1558   Mg   2.50626    -0.99993   0.15239   
 Mg1559   Mg   2.50633    -0.33332   0.15239   
 Mg1560   Mg   2.50627    -0.66671   0.15239   
 O1561    O    2.73760    -0.16666   0.07620   
 O1562    O    2.73760    -0.49997   0.07620   
 O1563    O    2.73760    -0.83332   0.07619   
 O1564    O    2.73763    -0.16667   0.22858   
 O1565    O    2.73763    -0.49998   0.22858   
 O1566    O    2.73741    -0.83331   0.22858   
 O1567    O    2.73762    -0.99997   0.00001   
 O1568    O    2.73756    -0.33332   0.00001   
 O1569    O    2.73762    -0.66667   0.00001   
 O1570    O    2.73759    -0.99998   0.15239   
 O1571    O    2.73759    -0.33332   0.15239   
 O1572    O    2.73760    -0.66666   0.15239   
 Mg1573   Mg   2.73130    -0.00002   0.07619   
 Mg1574   Mg   2.73131    -0.33333   0.07620   
 Mg1575   Mg   2.73130    -0.66664   0.07619   
 Mg1576   Mg   2.73131    -0.00001   0.22858   
 Mg1577   Mg   2.73132    -0.33332   0.22857   
 Mg1578   Mg   2.73132    -0.66663   0.22858   
 Mg1579   Mg   2.73131    -0.16667   0.00001   
 Mg1580   Mg   2.73131    -0.49999   0.00001   
 Mg1581   Mg   2.73131    -0.83333   0.00001   
 Mg1582   Mg   2.73129    -0.16667   0.15238   
 Mg1583   Mg   2.73130    -0.49999   0.15238   
 Mg1584   Mg   2.73134    -0.83333   0.15237   
 O1585    O    1.27501    -0.99998   0.00001   
 O1586    O    1.27507    -0.33333   0.00001   
 O1587    O    1.27501    -0.66667   0.00001   
 O1588    O    1.27497    -0.99998   0.15238   
 O1589    O    1.27504    -0.33332   0.15238   
 O1590    O    1.27498    -0.66667   0.15239   
 Mg1591   Mg   1.28130    -0.00001   0.07619   
 Mg1592   Mg   1.28132    -0.33331   0.07621   
 Mg1593   Mg   1.28131    -0.66661   0.07619   
 Mg1594   Mg   1.28128    -0.00002   0.22858   
 Mg1595   Mg   1.28131    -0.33332   0.22858   
 Mg1596   Mg   1.28128    -0.66662   0.22858   
 Mg1597   Mg   1.28132    -0.16666   0.00001   
 Mg1598   Mg   1.28132    -0.49997   0.00001   
 Mg1599   Mg   1.28127    -0.83332   0.00000   
 Mg1600   Mg   1.28131    -0.16667   0.15239   
 Mg1601   Mg   1.28131    -0.49996   0.15239   
 Mg1602   Mg   1.28127    -0.83330   0.15238   
 O1603    O    1.27500    -0.16666   0.07619   
 O1604    O    1.27500    -0.50000   0.07619   
 O1605    O    1.27500    -0.83333   0.07620   
 O1606    O    1.27496    -0.16665   0.22857   
 O1607    O    1.27497    -0.49998   0.22857   
 O1608    O    1.27515    -0.83334   0.22858   
 O1609    O    1.50631    -0.16667   0.00001   
 O1610    O    1.50631    -0.49997   0.00001   
 O1611    O    1.50629    -0.83332   0.00001   
 O1612    O    1.50629    -0.16667   0.15238   
 O1613    O    1.50628    -0.49998   0.15238   
 O1614    O    1.50627    -0.83332   0.15238   
 O1615    O    1.50632    -0.00004   0.07619   
 O1616    O    1.50630    -0.33332   0.07620   
 O1617    O    1.50632    -0.66660   0.07620   
 O1618    O    1.50630    -0.00006   0.22858   
 O1619    O    1.50630    -0.33332   0.22858   
 O1620    O    1.50630    -0.66658   0.22858   
 Mg1621   Mg   1.50630    -0.16664   0.07620   
 Mg1622   Mg   1.50631    -0.50000   0.07619   
 Mg1623   Mg   1.50623    -0.83332   0.07620   
 Mg1624   Mg   1.50631    -0.16664   0.22858   
 Mg1625   Mg   1.50633    -0.50000   0.22858   
 Mg1626   Mg   1.50629    -0.83332   0.22857   
 Mg1627   Mg   1.50631    -0.99994   0.00001   
 Mg1628   Mg   1.50632    -0.33332   0.00001   
 Mg1629   Mg   1.50631    -0.66671   0.00001   
 Mg1630   Mg   1.50626    -0.99993   0.15239   
 Mg1631   Mg   1.50633    -0.33332   0.15239   
 Mg1632   Mg   1.50627    -0.66671   0.15239   
 O1633    O    1.73760    -0.16666   0.07620   
 O1634    O    1.73760    -0.49997   0.07620   
 O1635    O    1.73760    -0.83332   0.07619   
 O1636    O    1.73763    -0.16667   0.22858   
 O1637    O    1.73763    -0.49998   0.22858   
 O1638    O    1.73741    -0.83331   0.22858   
 O1639    O    1.73762    -0.99997   0.00001   
 O1640    O    1.73756    -0.33332   0.00001   
 O1641    O    1.73762    -0.66667   0.00001   
 O1642    O    1.73759    -0.99998   0.15239   
 O1643    O    1.73759    -0.33332   0.15239   
 O1644    O    1.73760    -0.66666   0.15239   
 Mg1645   Mg   1.73130    -0.00002   0.07619   
 Mg1646   Mg   1.73131    -0.33333   0.07620   
 Mg1647   Mg   1.73130    -0.66664   0.07619   
 Mg1648   Mg   1.73131    -0.00001   0.22858   
 Mg1649   Mg   1.73132    -0.33332   0.22857   
 Mg1650   Mg   1.73132    -0.66663   0.22858   
 Mg1651   Mg   1.73131    -0.16667   0.00001   
 Mg1652   Mg   1.73131    -0.49999   0.00001   
 Mg1653   Mg   1.73131    -0.83333   0.00001   
 Mg1654   Mg   1.73129    -0.16667   0.15238   
 Mg1655   Mg   1.73130    -0.49999   0.15238   
 Mg1656   Mg   1.73134    -0.83333   0.15237   
 O1657    O    0.27501    -0.99998   0.00001   
 O1658    O    0.27507    -0.33333   0.00001   
 O1659    O    0.27501    -0.66667   0.00001   
 O1660    O    0.27497    -0.99998   0.15238   
 O1661    O    0.27504    -0.33332   0.15238   
 O1662    O    0.27498    -0.66667   0.15239   
 Mg1663   Mg   0.28130    -0.00001   0.07619   
 Mg1664   Mg   0.28132    -0.33331   0.07621   
 Mg1665   Mg   0.28131    -0.66661   0.07619   
 Mg1666   Mg   0.28128    -0.00002   0.22858   
 Mg1667   Mg   0.28131    -0.33332   0.22858   
 Mg1668   Mg   0.28128    -0.66662   0.22858   
 Mg1669   Mg   0.28132    -0.16666   0.00001   
 Mg1670   Mg   0.28132    -0.49997   0.00001   
 Mg1671   Mg   0.28127    -0.83332   0.00000   
 Mg1672   Mg   0.28131    -0.16667   0.15239   
 Mg1673   Mg   0.28131    -0.49996   0.15239   
 Mg1674   Mg   0.28127    -0.83330   0.15238   
 O1675    O    0.27500    -0.16666   0.07619   
 O1676    O    0.27500    -0.50000   0.07619   
 O1677    O    0.27500    -0.83333   0.07620   
 O1678    O    0.27496    -0.16665   0.22857   
 O1679    O    0.27497    -0.49998   0.22857   
 O1680    O    0.27515    -0.83334   0.22858   
 O1681    O    0.50631    -0.16667   0.00001   
 O1682    O    0.50631    -0.49997   0.00001   
 O1683    O    0.50629    -0.83332   0.00001   
 O1684    O    0.50629    -0.16667   0.15238   
 O1685    O    0.50628    -0.49998   0.15238   
 O1686    O    0.50627    -0.83332   0.15238   
 O1687    O    0.50632    -0.00004   0.07619   
 O1688    O    0.50630    -0.33332   0.07620   
 O1689    O    0.50632    -0.66660   0.07620   
 O1690    O    0.50630    -0.00006   0.22858   
 O1691    O    0.50630    -0.33332   0.22858   
 O1692    O    0.50630    -0.66658   0.22858   
 Mg1693   Mg   0.50630    -0.16664   0.07620   
 Mg1694   Mg   0.50631    -0.50000   0.07619   
 Mg1695   Mg   0.50623    -0.83332   0.07620   
 Mg1696   Mg   0.50631    -0.16664   0.22858   
 Mg1697   Mg   0.50633    -0.50000   0.22858   
 Mg1698   Mg   0.50629    -0.83332   0.22857   
 Mg1699   Mg   0.50631    -0.99994   0.00001   
 Mg1700   Mg   0.50632    -0.33332   0.00001   
 Mg1701   Mg   0.50631    -0.66671   0.00001   
 Mg1702   Mg   0.50626    -0.99993   0.15239   
 Mg1703   Mg   0.50633    -0.33332   0.15239   
 Mg1704   Mg   0.50627    -0.66671   0.15239   
 O1705    O    0.73760    -0.16666   0.07620   
 O1706    O    0.73760    -0.49997   0.07620   
 O1707    O    0.73760    -0.83332   0.07619   
 O1708    O    0.73763    -0.16667   0.22858   
 O1709    O    0.73763    -0.49998   0.22858   
 O1710    O    0.73741    -0.83331   0.22858   
 O1711    O    0.73762    -0.99997   0.00001   
 O1712    O    0.73756    -0.33332   0.00001   
 O1713    O    0.73762    -0.66667   0.00001   
 O1714    O    0.73759    -0.99998   0.15239   
 O1715    O    0.73759    -0.33332   0.15239   
 O1716    O    0.73760    -0.66666   0.15239   
 Mg1717   Mg   0.73130    -0.00002   0.07619   
 Mg1718   Mg   0.73131    -0.33333   0.07620   
 Mg1719   Mg   0.73130    -0.66664   0.07619   
 Mg1720   Mg   0.73131    -0.00001   0.22858   
 Mg1721   Mg   0.73132    -0.33332   0.22857   
 Mg1722   Mg   0.73132    -0.66663   0.22858   
 Mg1723   Mg   0.73131    -0.16667   0.00001   
 Mg1724   Mg   0.73131    -0.49999   0.00001   
 Mg1725   Mg   0.73131    -0.83333   0.00001   
 Mg1726   Mg   0.73129    -0.16667   0.15238   
 Mg1727   Mg   0.73130    -0.49999   0.15238   
 Mg1728   Mg   0.73134    -0.83333   0.15237   
 O1729    O    -0.72499   -0.99998   0.00001   
 O1730    O    -0.72493   -0.33333   0.00001   
 O1731    O    -0.72499   -0.66667   0.00001   
 O1732    O    -0.72503   -0.99998   0.15238   
 O1733    O    -0.72496   -0.33332   0.15238   
 O1734    O    -0.72502   -0.66667   0.15239   
 Mg1735   Mg   -0.71870   -0.00001   0.07619   
 Mg1736   Mg   -0.71868   -0.33331   0.07621   
 Mg1737   Mg   -0.71869   -0.66661   0.07619   
 Mg1738   Mg   -0.71872   -0.00002   0.22858   
 Mg1739   Mg   -0.71869   -0.33332   0.22858   
 Mg1740   Mg   -0.71872   -0.66662   0.22858   
 Mg1741   Mg   -0.71868   -0.16666   0.00001   
 Mg1742   Mg   -0.71868   -0.49997   0.00001   
 Mg1743   Mg   -0.71873   -0.83332   0.00000   
 Mg1744   Mg   -0.71869   -0.16667   0.15239   
 Mg1745   Mg   -0.71869   -0.49996   0.15239   
 Mg1746   Mg   -0.71873   -0.83330   0.15238   
 O1747    O    -0.72500   -0.16666   0.07619   
 O1748    O    -0.72500   -0.50000   0.07619   
 O1749    O    -0.72500   -0.83333   0.07620   
 O1750    O    -0.72504   -0.16665   0.22857   
 O1751    O    -0.72503   -0.49998   0.22857   
 O1752    O    -0.72485   -0.83334   0.22858   
 O1753    O    -0.49369   -0.16667   0.00001   
 O1754    O    -0.49369   -0.49997   0.00001   
 O1755    O    -0.49371   -0.83332   0.00001   
 O1756    O    -0.49371   -0.16667   0.15238   
 O1757    O    -0.49372   -0.49998   0.15238   
 O1758    O    -0.49373   -0.83332   0.15238   
 O1759    O    -0.49368   -0.00004   0.07619   
 O1760    O    -0.49370   -0.33332   0.07620   
 O1761    O    -0.49368   -0.66660   0.07620   
 O1762    O    -0.49370   -0.00006   0.22858   
 O1763    O    -0.49370   -0.33332   0.22858   
 O1764    O    -0.49370   -0.66658   0.22858   
 Mg1765   Mg   -0.49370   -0.16664   0.07620   
 Mg1766   Mg   -0.49369   -0.50000   0.07619   
 Mg1767   Mg   -0.49377   -0.83332   0.07620   
 Mg1768   Mg   -0.49369   -0.16664   0.22858   
 Mg1769   Mg   -0.49367   -0.50000   0.22858   
 Mg1770   Mg   -0.49371   -0.83332   0.22857   
 Mg1771   Mg   -0.49369   -0.99994   0.00001   
 Mg1772   Mg   -0.49368   -0.33332   0.00001   
 Mg1773   Mg   -0.49369   -0.66671   0.00001   
 Mg1774   Mg   -0.49374   -0.99993   0.15239   
 Mg1775   Mg   -0.49367   -0.33332   0.15239   
 Mg1776   Mg   -0.49373   -0.66671   0.15239   
 O1777    O    -0.26240   -0.16666   0.07620   
 O1778    O    -0.26240   -0.49997   0.07620   
 O1779    O    -0.26240   -0.83332   0.07619   
 O1780    O    -0.26237   -0.16667   0.22858   
 O1781    O    -0.26237   -0.49998   0.22858   
 O1782    O    -0.26259   -0.83331   0.22858   
 O1783    O    -0.26238   -0.99997   0.00001   
 O1784    O    -0.26244   -0.33332   0.00001   
 O1785    O    -0.26238   -0.66667   0.00001   
 O1786    O    -0.26241   -0.99998   0.15239   
 O1787    O    -0.26241   -0.33332   0.15239   
 O1788    O    -0.26240   -0.66666   0.15239   
 Mg1789   Mg   -0.26870   -0.00002   0.07619   
 Mg1790   Mg   -0.26869   -0.33333   0.07620   
 Mg1791   Mg   -0.26870   -0.66664   0.07619   
 Mg1792   Mg   -0.26869   -0.00001   0.22858   
 Mg1793   Mg   -0.26868   -0.33332   0.22857   
 Mg1794   Mg   -0.26868   -0.66663   0.22858   
 Mg1795   Mg   -0.26869   -0.16667   0.00001   
 Mg1796   Mg   -0.26869   -0.49999   0.00001   
 Mg1797   Mg   -0.26869   -0.83333   0.00001   
 Mg1798   Mg   -0.26871   -0.16667   0.15238   
 Mg1799   Mg   -0.26870   -0.49999   0.15238   
 Mg1800   Mg   -0.26866   -0.83333   0.15237   
 O1801    O    -1.72499   -0.99998   0.00001   
 O1802    O    -1.72493   -0.33333   0.00001   
 O1803    O    -1.72499   -0.66667   0.00001   
 O1804    O    -1.72503   -0.99998   0.15238   
 O1805    O    -1.72496   -0.33332   0.15238   
 O1806    O    -1.72502   -0.66667   0.15239   
 Mg1807   Mg   -1.71870   -0.00001   0.07619   
 Mg1808   Mg   -1.71868   -0.33331   0.07621   
 Mg1809   Mg   -1.71869   -0.66661   0.07619   
 Mg1810   Mg   -1.71872   -0.00002   0.22858   
 Mg1811   Mg   -1.71869   -0.33332   0.22858   
 Mg1812   Mg   -1.71872   -0.66662   0.22858   
 Mg1813   Mg   -1.71868   -0.16666   0.00001   
 Mg1814   Mg   -1.71868   -0.49997   0.00001   
 Mg1815   Mg   -1.71873   -0.83332   0.00000   
 Mg1816   Mg   -1.71869   -0.16667   0.15239   
 Mg1817   Mg   -1.71869   -0.49996   0.15239   
 Mg1818   Mg   -1.71873   -0.83330   0.15238   
 O1819    O    -1.72500   -0.16666   0.07619   
 O1820    O    -1.72500   -0.50000   0.07619   
 O1821    O    -1.72500   -0.83333   0.07620   
 O1822    O    -1.72504   -0.16665   0.22857   
 O1823    O    -1.72503   -0.49998   0.22857   
 O1824    O    -1.72485   -0.83334   0.22858   
 O1825    O    -1.49369   -0.16667   0.00001   
 O1826    O    -1.49369   -0.49997   0.00001   
 O1827    O    -1.49371   -0.83332   0.00001   
 O1828    O    -1.49371   -0.16667   0.15238   
 O1829    O    -1.49372   -0.49998   0.15238   
 O1830    O    -1.49373   -0.83332   0.15238   
 O1831    O    -1.49368   -0.00004   0.07619   
 O1832    O    -1.49370   -0.33332   0.07620   
 O1833    O    -1.49368   -0.66660   0.07620   
 O1834    O    -1.49370   -0.00006   0.22858   
 O1835    O    -1.49370   -0.33332   0.22858   
 O1836    O    -1.49370   -0.66658   0.22858   
 Mg1837   Mg   -1.49370   -0.16664   0.07620   
 Mg1838   Mg   -1.49369   -0.50000   0.07619   
 Mg1839   Mg   -1.49377   -0.83332   0.07620   
 Mg1840   Mg   -1.49369   -0.16664   0.22858   
 Mg1841   Mg   -1.49367   -0.50000   0.22858   
 Mg1842   Mg   -1.49371   -0.83332   0.22857   
 Mg1843   Mg   -1.49369   -0.99994   0.00001   
 Mg1844   Mg   -1.49368   -0.33332   0.00001   
 Mg1845   Mg   -1.49369   -0.66671   0.00001   
 Mg1846   Mg   -1.49374   -0.99993   0.15239   
 Mg1847   Mg   -1.49367   -0.33332   0.15239   
 Mg1848   Mg   -1.49373   -0.66671   0.15239   
 O1849    O    -1.26240   -0.16666   0.07620   
 O1850    O    -1.26240   -0.49997   0.07620   
 O1851    O    -1.26240   -0.83332   0.07619   
 O1852    O    -1.26237   -0.16667   0.22858   
 O1853    O    -1.26237   -0.49998   0.22858   
 O1854    O    -1.26259   -0.83331   0.22858   
 O1855    O    -1.26238   -0.99997   0.00001   
 O1856    O    -1.26244   -0.33332   0.00001   
 O1857    O    -1.26238   -0.66667   0.00001   
 O1858    O    -1.26241   -0.99998   0.15239   
 O1859    O    -1.26241   -0.33332   0.15239   
 O1860    O    -1.26240   -0.66666   0.15239   
 Mg1861   Mg   -1.26870   -0.00002   0.07619   
 Mg1862   Mg   -1.26869   -0.33333   0.07620   
 Mg1863   Mg   -1.26870   -0.66664   0.07619   
 Mg1864   Mg   -1.26869   -0.00001   0.22858   
 Mg1865   Mg   -1.26868   -0.33332   0.22857   
 Mg1866   Mg   -1.26868   -0.66663   0.22858   
 Mg1867   Mg   -1.26869   -0.16667   0.00001   
 Mg1868   Mg   -1.26869   -0.49999   0.00001   
 Mg1869   Mg   -1.26869   -0.83333   0.00001   
 Mg1870   Mg   -1.26871   -0.16667   0.15238   
 Mg1871   Mg   -1.26870   -0.49999   0.15238   
 Mg1872   Mg   -1.26866   -0.83333   0.15237   
 O1873    O    -2.72499   -0.99998   0.00001   
 O1874    O    -2.72493   -0.33333   0.00001   
 O1875    O    -2.72499   -0.66667   0.00001   
 O1876    O    -2.72503   -0.99998   0.15238   
 O1877    O    -2.72496   -0.33332   0.15238   
 O1878    O    -2.72502   -0.66667   0.15239   
 Mg1879   Mg   -2.71870   -0.00001   0.07619   
 Mg1880   Mg   -2.71868   -0.33331   0.07621   
 Mg1881   Mg   -2.71869   -0.66661   0.07619   
 Mg1882   Mg   -2.71872   -0.00002   0.22858   
 Mg1883   Mg   -2.71869   -0.33332   0.22858   
 Mg1884   Mg   -2.71872   -0.66662   0.22858   
 Mg1885   Mg   -2.71868   -0.16666   0.00001   
 Mg1886   Mg   -2.71868   -0.49997   0.00001   
 Mg1887   Mg   -2.71873   -0.83332   0.00000   
 Mg1888   Mg   -2.71869   -0.16667   0.15239   
 Mg1889   Mg   -2.71869   -0.49996   0.15239   
 Mg1890   Mg   -2.71873   -0.83330   0.15238   
 O1891    O    -2.72500   -0.16666   0.07619   
 O1892    O    -2.72500   -0.50000   0.07619   
 O1893    O    -2.72500   -0.83333   0.07620   
 O1894    O    -2.72504   -0.16665   0.22857   
 O1895    O    -2.72503   -0.49998   0.22857   
 O1896    O    -2.72485   -0.83334   0.22858   
 O1897    O    -2.49369   -0.16667   0.00001   
 O1898    O    -2.49369   -0.49997   0.00001   
 O1899    O    -2.49371   -0.83332   0.00001   
 O1900    O    -2.49371   -0.16667   0.15238   
 O1901    O    -2.49372   -0.49998   0.15238   
 O1902    O    -2.49373   -0.83332   0.15238   
 O1903    O    -2.49368   -0.00004   0.07619   
 O1904    O    -2.49370   -0.33332   0.07620   
 O1905    O    -2.49368   -0.66660   0.07620   
 O1906    O    -2.49370   -0.00006   0.22858   
 O1907    O    -2.49370   -0.33332   0.22858   
 O1908    O    -2.49370   -0.66658   0.22858   
 Mg1909   Mg   -2.49370   -0.16664   0.07620   
 Mg1910   Mg   -2.49369   -0.50000   0.07619   
 Mg1911   Mg   -2.49377   -0.83332   0.07620   
 Mg1912   Mg   -2.49369   -0.16664   0.22858   
 Mg1913   Mg   -2.49367   -0.50000   0.22858   
 Mg1914   Mg   -2.49371   -0.83332   0.22857   
 Mg1915   Mg   -2.49369   -0.99994   0.00001   
 Mg1916   Mg   -2.49368   -0.33332   0.00001   
 Mg1917   Mg   -2.49369   -0.66671   0.00001   
 Mg1918   Mg   -2.49374   -0.99993   0.15239   
 Mg1919   Mg   -2.49367   -0.33332   0.15239   
 Mg1920   Mg   -2.49373   -0.66671   0.15239   
 O1921    O    -2.26240   -0.16666   0.07620   
 O1922    O    -2.26240   -0.49997   0.07620   
 O1923    O    -2.26240   -0.83332   0.07619   
 O1924    O    -2.26237   -0.16667   0.22858   
 O1925    O    -2.26237   -0.49998   0.22858   
 O1926    O    -2.26259   -0.83331   0.22858   
 O1927    O    -2.26238   -0.99997   0.00001   
 O1928    O    -2.26244   -0.33332   0.00001   
 O1929    O    -2.26238   -0.66667   0.00001   
 O1930    O    -2.26241   -0.99998   0.15239   
 O1931    O    -2.26241   -0.33332   0.15239   
 O1932    O    -2.26240   -0.66666   0.15239   
 Mg1933   Mg   -2.26870   -0.00002   0.07619   
 Mg1934   Mg   -2.26869   -0.33333   0.07620   
 Mg1935   Mg   -2.26870   -0.66664   0.07619   
 Mg1936   Mg   -2.26869   -0.00001   0.22858   
 Mg1937   Mg   -2.26868   -0.33332   0.22857   
 Mg1938   Mg   -2.26868   -0.66663   0.22858   
 Mg1939   Mg   -2.26869   -0.16667   0.00001   
 Mg1940   Mg   -2.26869   -0.49999   0.00001   
 Mg1941   Mg   -2.26869   -0.83333   0.00001   
 Mg1942   Mg   -2.26871   -0.16667   0.15238   
 Mg1943   Mg   -2.26870   -0.49999   0.15238   
 Mg1944   Mg   -2.26866   -0.83333   0.15237   
 O1945    O    -3.72499   -0.99998   0.00001   
 O1946    O    -3.72493   -0.33333   0.00001   
 O1947    O    -3.72499   -0.66667   0.00001   
 O1948    O    -3.72503   -0.99998   0.15238   
 O1949    O    -3.72496   -0.33332   0.15238   
 O1950    O    -3.72502   -0.66667   0.15239   
 Mg1951   Mg   -3.71870   -0.00001   0.07619   
 Mg1952   Mg   -3.71868   -0.33331   0.07621   
 Mg1953   Mg   -3.71869   -0.66661   0.07619   
 Mg1954   Mg   -3.71872   -0.00002   0.22858   
 Mg1955   Mg   -3.71869   -0.33332   0.22858   
 Mg1956   Mg   -3.71872   -0.66662   0.22858   
 Mg1957   Mg   -3.71868   -0.16666   0.00001   
 Mg1958   Mg   -3.71868   -0.49997   0.00001   
 Mg1959   Mg   -3.71873   -0.83332   0.00000   
 Mg1960   Mg   -3.71869   -0.16667   0.15239   
 Mg1961   Mg   -3.71869   -0.49996   0.15239   
 Mg1962   Mg   -3.71873   -0.83330   0.15238   
 O1963    O    -3.72500   -0.16666   0.07619   
 O1964    O    -3.72500   -0.50000   0.07619   
 O1965    O    -3.72500   -0.83333   0.07620   
 O1966    O    -3.72504   -0.16665   0.22857   
 O1967    O    -3.72503   -0.49998   0.22857   
 O1968    O    -3.72485   -0.83334   0.22858   
 O1969    O    -3.49369   -0.16667   0.00001   
 O1970    O    -3.49369   -0.49997   0.00001   
 O1971    O    -3.49371   -0.83332   0.00001   
 O1972    O    -3.49371   -0.16667   0.15238   
 O1973    O    -3.49372   -0.49998   0.15238   
 O1974    O    -3.49373   -0.83332   0.15238   
 O1975    O    -3.49368   -0.00004   0.07619   
 O1976    O    -3.49370   -0.33332   0.07620   
 O1977    O    -3.49368   -0.66660   0.07620   
 O1978    O    -3.49370   -0.00006   0.22858   
 O1979    O    -3.49370   -0.33332   0.22858   
 O1980    O    -3.49370   -0.66658   0.22858   
 Mg1981   Mg   -3.49370   -0.16664   0.07620   
 Mg1982   Mg   -3.49369   -0.50000   0.07619   
 Mg1983   Mg   -3.49377   -0.83332   0.07620   
 Mg1984   Mg   -3.49369   -0.16664   0.22858   
 Mg1985   Mg   -3.49367   -0.50000   0.22858   
 Mg1986   Mg   -3.49371   -0.83332   0.22857   
 Mg1987   Mg   -3.49369   -0.99994   0.00001   
 Mg1988   Mg   -3.49368   -0.33332   0.00001   
 Mg1989   Mg   -3.49369   -0.66671   0.00001   
 Mg1990   Mg   -3.49374   -0.99993   0.15239   
 Mg1991   Mg   -3.49367   -0.33332   0.15239   
 Mg1992   Mg   -3.49373   -0.66671   0.15239   
 O1993    O    -3.26240   -0.16666   0.07620   
 O1994    O    -3.26240   -0.49997   0.07620   
 O1995    O    -3.26240   -0.83332   0.07619   
 O1996    O    -3.26237   -0.16667   0.22858   
 O1997    O    -3.26237   -0.49998   0.22858   
 O1998    O    -3.26259   -0.83331   0.22858   
 O1999    O    -3.26238   -0.99997   0.00001   
 O2000    O    -3.26244   -0.33332   0.00001   
 O2001    O    -3.26238   -0.66667   0.00001   
 O2002    O    -3.26241   -0.99998   0.15239   
 O2003    O    -3.26241   -0.33332   0.15239   
 O2004    O    -3.26240   -0.66666   0.15239   
 Mg2005   Mg   -3.26870   -0.00002   0.07619   
 Mg2006   Mg   -3.26869   -0.33333   0.07620   
 Mg2007   Mg   -3.26870   -0.66664   0.07619   
 Mg2008   Mg   -3.26869   -0.00001   0.22858   
 Mg2009   Mg   -3.26868   -0.33332   0.22857   
 Mg2010   Mg   -3.26868   -0.66663   0.22858   
 Mg2011   Mg   -3.26869   -0.16667   0.00001   
 Mg2012   Mg   -3.26869   -0.49999   0.00001   
 Mg2013   Mg   -3.26869   -0.83333   0.00001   
 Mg2014   Mg   -3.26871   -0.16667   0.15238   
 Mg2015   Mg   -3.26870   -0.49999   0.15238   
 Mg2016   Mg   -3.26866   -0.83333   0.15237   
 O2017    O    2.27501    -1.99998   0.00001   
 O2018    O    2.27507    -1.33333   0.00001   
 O2019    O    2.27501    -1.66667   0.00001   
 O2020    O    2.27497    -1.99998   0.15238   
 O2021    O    2.27504    -1.33332   0.15238   
 O2022    O    2.27498    -1.66667   0.15239   
 Mg2023   Mg   2.28130    -1.00001   0.07619   
 Mg2024   Mg   2.28132    -1.33331   0.07621   
 Mg2025   Mg   2.28131    -1.66661   0.07619   
 Mg2026   Mg   2.28128    -1.00002   0.22858   
 Mg2027   Mg   2.28131    -1.33332   0.22858   
 Mg2028   Mg   2.28128    -1.66662   0.22858   
 Mg2029   Mg   2.28132    -1.16666   0.00001   
 Mg2030   Mg   2.28132    -1.49997   0.00001   
 Mg2031   Mg   2.28127    -1.83332   0.00000   
 Mg2032   Mg   2.28131    -1.16667   0.15239   
 Mg2033   Mg   2.28131    -1.49996   0.15239   
 Mg2034   Mg   2.28127    -1.83330   0.15238   
 O2035    O    2.27500    -1.16666   0.07619   
 O2036    O    2.27500    -1.50000   0.07619   
 O2037    O    2.27500    -1.83333   0.07620   
 O2038    O    2.27496    -1.16665   0.22857   
 O2039    O    2.27497    -1.49998   0.22857   
 O2040    O    2.27515    -1.83334   0.22858   
 O2041    O    2.50631    -1.16667   0.00001   
 O2042    O    2.50631    -1.49997   0.00001   
 O2043    O    2.50629    -1.83332   0.00001   
 O2044    O    2.50629    -1.16667   0.15238   
 O2045    O    2.50628    -1.49998   0.15238   
 O2046    O    2.50627    -1.83332   0.15238   
 O2047    O    2.50632    -1.00004   0.07619   
 O2048    O    2.50630    -1.33332   0.07620   
 O2049    O    2.50632    -1.66660   0.07620   
 O2050    O    2.50630    -1.00006   0.22858   
 O2051    O    2.50630    -1.33332   0.22858   
 O2052    O    2.50630    -1.66658   0.22858   
 Mg2053   Mg   2.50630    -1.16664   0.07620   
 Mg2054   Mg   2.50631    -1.50000   0.07619   
 Mg2055   Mg   2.50623    -1.83332   0.07620   
 Mg2056   Mg   2.50631    -1.16664   0.22858   
 Mg2057   Mg   2.50633    -1.50000   0.22858   
 Mg2058   Mg   2.50629    -1.83332   0.22857   
 Mg2059   Mg   2.50631    -1.99994   0.00001   
 Mg2060   Mg   2.50632    -1.33332   0.00001   
 Mg2061   Mg   2.50631    -1.66671   0.00001   
 Mg2062   Mg   2.50626    -1.99993   0.15239   
 Mg2063   Mg   2.50633    -1.33332   0.15239   
 Mg2064   Mg   2.50627    -1.66671   0.15239   
 O2065    O    2.73760    -1.16666   0.07620   
 O2066    O    2.73760    -1.49997   0.07620   
 O2067    O    2.73760    -1.83332   0.07619   
 O2068    O    2.73763    -1.16667   0.22858   
 O2069    O    2.73763    -1.49998   0.22858   
 O2070    O    2.73741    -1.83331   0.22858   
 O2071    O    2.73762    -1.99997   0.00001   
 O2072    O    2.73756    -1.33332   0.00001   
 O2073    O    2.73762    -1.66667   0.00001   
 O2074    O    2.73759    -1.99998   0.15239   
 O2075    O    2.73759    -1.33332   0.15239   
 O2076    O    2.73760    -1.66666   0.15239   
 Mg2077   Mg   2.73130    -1.00002   0.07619   
 Mg2078   Mg   2.73131    -1.33333   0.07620   
 Mg2079   Mg   2.73130    -1.66664   0.07619   
 Mg2080   Mg   2.73131    -1.00001   0.22858   
 Mg2081   Mg   2.73132    -1.33332   0.22857   
 Mg2082   Mg   2.73132    -1.66663   0.22858   
 Mg2083   Mg   2.73131    -1.16667   0.00001   
 Mg2084   Mg   2.73131    -1.49999   0.00001   
 Mg2085   Mg   2.73131    -1.83333   0.00001   
 Mg2086   Mg   2.73129    -1.16667   0.15238   
 Mg2087   Mg   2.73130    -1.49999   0.15238   
 Mg2088   Mg   2.73134    -1.83333   0.15237   
 O2089    O    1.27501    -1.99998   0.00001   
 O2090    O    1.27507    -1.33333   0.00001   
 O2091    O    1.27501    -1.66667   0.00001   
 O2092    O    1.27497    -1.99998   0.15238   
 O2093    O    1.27504    -1.33332   0.15238   
 O2094    O    1.27498    -1.66667   0.15239   
 Mg2095   Mg   1.28130    -1.00001   0.07619   
 Mg2096   Mg   1.28132    -1.33331   0.07621   
 Mg2097   Mg   1.28131    -1.66661   0.07619   
 Mg2098   Mg   1.28128    -1.00002   0.22858   
 Mg2099   Mg   1.28131    -1.33332   0.22858   
 Mg2100   Mg   1.28128    -1.66662   0.22858   
 Mg2101   Mg   1.28132    -1.16666   0.00001   
 Mg2102   Mg   1.28132    -1.49997   0.00001   
 Mg2103   Mg   1.28127    -1.83332   0.00000   
 Mg2104   Mg   1.28131    -1.16667   0.15239   
 Mg2105   Mg   1.28131    -1.49996   0.15239   
 Mg2106   Mg   1.28127    -1.83330   0.15238   
 O2107    O    1.27500    -1.16666   0.07619   
 O2108    O    1.27500    -1.50000   0.07619   
 O2109    O    1.27500    -1.83333   0.07620   
 O2110    O    1.27496    -1.16665   0.22857   
 O2111    O    1.27497    -1.49998   0.22857   
 O2112    O    1.27515    -1.83334   0.22858   
 O2113    O    1.50631    -1.16667   0.00001   
 O2114    O    1.50631    -1.49997   0.00001   
 O2115    O    1.50629    -1.83332   0.00001   
 O2116    O    1.50629    -1.16667   0.15238   
 O2117    O    1.50628    -1.49998   0.15238   
 O2118    O    1.50627    -1.83332   0.15238   
 O2119    O    1.50632    -1.00004   0.07619   
 O2120    O    1.50630    -1.33332   0.07620   
 O2121    O    1.50632    -1.66660   0.07620   
 O2122    O    1.50630    -1.00006   0.22858   
 O2123    O    1.50630    -1.33332   0.22858   
 O2124    O    1.50630    -1.66658   0.22858   
 Mg2125   Mg   1.50630    -1.16664   0.07620   
 Mg2126   Mg   1.50631    -1.50000   0.07619   
 Mg2127   Mg   1.50623    -1.83332   0.07620   
 Mg2128   Mg   1.50631    -1.16664   0.22858   
 Mg2129   Mg   1.50633    -1.50000   0.22858   
 Mg2130   Mg   1.50629    -1.83332   0.22857   
 Mg2131   Mg   1.50631    -1.99994   0.00001   
 Mg2132   Mg   1.50632    -1.33332   0.00001   
 Mg2133   Mg   1.50631    -1.66671   0.00001   
 Mg2134   Mg   1.50626    -1.99993   0.15239   
 Mg2135   Mg   1.50633    -1.33332   0.15239   
 Mg2136   Mg   1.50627    -1.66671   0.15239   
 O2137    O    1.73760    -1.16666   0.07620   
 O2138    O    1.73760    -1.49997   0.07620   
 O2139    O    1.73760    -1.83332   0.07619   
 O2140    O    1.73763    -1.16667   0.22858   
 O2141    O    1.73763    -1.49998   0.22858   
 O2142    O    1.73741    -1.83331   0.22858   
 O2143    O    1.73762    -1.99997   0.00001   
 O2144    O    1.73756    -1.33332   0.00001   
 O2145    O    1.73762    -1.66667   0.00001   
 O2146    O    1.73759    -1.99998   0.15239   
 O2147    O    1.73759    -1.33332   0.15239   
 O2148    O    1.73760    -1.66666   0.15239   
 Mg2149   Mg   1.73130    -1.00002   0.07619   
 Mg2150   Mg   1.73131    -1.33333   0.07620   
 Mg2151   Mg   1.73130    -1.66664   0.07619   
 Mg2152   Mg   1.73131    -1.00001   0.22858   
 Mg2153   Mg   1.73132    -1.33332   0.22857   
 Mg2154   Mg   1.73132    -1.66663   0.22858   
 Mg2155   Mg   1.73131    -1.16667   0.00001   
 Mg2156   Mg   1.73131    -1.49999   0.00001   
 Mg2157   Mg   1.73131    -1.83333   0.00001   
 Mg2158   Mg   1.73129    -1.16667   0.15238   
 Mg2159   Mg   1.73130    -1.49999   0.15238   
 Mg2160   Mg   1.73134    -1.83333   0.15237   
 O2161    O    0.27501    -1.99998   0.00001   
 O2162    O    0.27507    -1.33333   0.00001   
 O2163    O    0.27501    -1.66667   0.00001   
 O2164    O    0.27497    -1.99998   0.15238   
 O2165    O    0.27504    -1.33332   0.15238   
 O2166    O    0.27498    -1.66667   0.15239   
 Mg2167   Mg   0.28130    -1.00001   0.07619   
 Mg2168   Mg   0.28132    -1.33331   0.07621   
 Mg2169   Mg   0.28131    -1.66661   0.07619   
 Mg2170   Mg   0.28128    -1.00002   0.22858   
 Mg2171   Mg   0.28131    -1.33332   0.22858   
 Mg2172   Mg   0.28128    -1.66662   0.22858   
 Mg2173   Mg   0.28132    -1.16666   0.00001   
 Mg2174   Mg   0.28132    -1.49997   0.00001   
 Mg2175   Mg   0.28127    -1.83332   0.00000   
 Mg2176   Mg   0.28131    -1.16667   0.15239   
 Mg2177   Mg   0.28131    -1.49996   0.15239   
 Mg2178   Mg   0.28127    -1.83330   0.15238   
 O2179    O    0.27500    -1.16666   0.07619   
 O2180    O    0.27500    -1.50000   0.07619   
 O2181    O    0.27500    -1.83333   0.07620   
 O2182    O    0.27496    -1.16665   0.22857   
 O2183    O    0.27497    -1.49998   0.22857   
 O2184    O    0.27515    -1.83334   0.22858   
 O2185    O    0.50631    -1.16667   0.00001   
 O2186    O    0.50631    -1.49997   0.00001   
 O2187    O    0.50629    -1.83332   0.00001   
 O2188    O    0.50629    -1.16667   0.15238   
 O2189    O    0.50628    -1.49998   0.15238   
 O2190    O    0.50627    -1.83332   0.15238   
 O2191    O    0.50632    -1.00004   0.07619   
 O2192    O    0.50630    -1.33332   0.07620   
 O2193    O    0.50632    -1.66660   0.07620   
 O2194    O    0.50630    -1.00006   0.22858   
 O2195    O    0.50630    -1.33332   0.22858   
 O2196    O    0.50630    -1.66658   0.22858   
 Mg2197   Mg   0.50630    -1.16664   0.07620   
 Mg2198   Mg   0.50631    -1.50000   0.07619   
 Mg2199   Mg   0.50623    -1.83332   0.07620   
 Mg2200   Mg   0.50631    -1.16664   0.22858   
 Mg2201   Mg   0.50633    -1.50000   0.22858   
 Mg2202   Mg   0.50629    -1.83332   0.22857   
 Mg2203   Mg   0.50631    -1.99994   0.00001   
 Mg2204   Mg   0.50632    -1.33332   0.00001   
 Mg2205   Mg   0.50631    -1.66671   0.00001   
 Mg2206   Mg   0.50626    -1.99993   0.15239   
 Mg2207   Mg   0.50633    -1.33332   0.15239   
 Mg2208   Mg   0.50627    -1.66671   0.15239   
 O2209    O    0.73760    -1.16666   0.07620   
 O2210    O    0.73760    -1.49997   0.07620   
 O2211    O    0.73760    -1.83332   0.07619   
 O2212    O    0.73763    -1.16667   0.22858   
 O2213    O    0.73763    -1.49998   0.22858   
 O2214    O    0.73741    -1.83331   0.22858   
 O2215    O    0.73762    -1.99997   0.00001   
 O2216    O    0.73756    -1.33332   0.00001   
 O2217    O    0.73762    -1.66667   0.00001   
 O2218    O    0.73759    -1.99998   0.15239   
 O2219    O    0.73759    -1.33332   0.15239   
 O2220    O    0.73760    -1.66666   0.15239   
 Mg2221   Mg   0.73130    -1.00002   0.07619   
 Mg2222   Mg   0.73131    -1.33333   0.07620   
 Mg2223   Mg   0.73130    -1.66664   0.07619   
 Mg2224   Mg   0.73131    -1.00001   0.22858   
 Mg2225   Mg   0.73132    -1.33332   0.22857   
 Mg2226   Mg   0.73132    -1.66663   0.22858   
 Mg2227   Mg   0.73131    -1.16667   0.00001   
 Mg2228   Mg   0.73131    -1.49999   0.00001   
 Mg2229   Mg   0.73131    -1.83333   0.00001   
 Mg2230   Mg   0.73129    -1.16667   0.15238   
 Mg2231   Mg   0.73130    -1.49999   0.15238   
 Mg2232   Mg   0.73134    -1.83333   0.15237   
 O2233    O    -0.72499   -1.99998   0.00001   
 O2234    O    -0.72493   -1.33333   0.00001   
 O2235    O    -0.72499   -1.66667   0.00001   
 O2236    O    -0.72503   -1.99998   0.15238   
 O2237    O    -0.72496   -1.33332   0.15238   
 O2238    O    -0.72502   -1.66667   0.15239   
 Mg2239   Mg   -0.71870   -1.00001   0.07619   
 Mg2240   Mg   -0.71868   -1.33331   0.07621   
 Mg2241   Mg   -0.71869   -1.66661   0.07619   
 Mg2242   Mg   -0.71872   -1.00002   0.22858   
 Mg2243   Mg   -0.71869   -1.33332   0.22858   
 Mg2244   Mg   -0.71872   -1.66662   0.22858   
 Mg2245   Mg   -0.71868   -1.16666   0.00001   
 Mg2246   Mg   -0.71868   -1.49997   0.00001   
 Mg2247   Mg   -0.71873   -1.83332   0.00000   
 Mg2248   Mg   -0.71869   -1.16667   0.15239   
 Mg2249   Mg   -0.71869   -1.49996   0.15239   
 Mg2250   Mg   -0.71873   -1.83330   0.15238   
 O2251    O    -0.72500   -1.16666   0.07619   
 O2252    O    -0.72500   -1.50000   0.07619   
 O2253    O    -0.72500   -1.83333   0.07620   
 O2254    O    -0.72504   -1.16665   0.22857   
 O2255    O    -0.72503   -1.49998   0.22857   
 O2256    O    -0.72485   -1.83334   0.22858   
 O2257    O    -0.49369   -1.16667   0.00001   
 O2258    O    -0.49369   -1.49997   0.00001   
 O2259    O    -0.49371   -1.83332   0.00001   
 O2260    O    -0.49371   -1.16667   0.15238   
 O2261    O    -0.49372   -1.49998   0.15238   
 O2262    O    -0.49373   -1.83332   0.15238   
 O2263    O    -0.49368   -1.00004   0.07619   
 O2264    O    -0.49370   -1.33332   0.07620   
 O2265    O    -0.49368   -1.66660   0.07620   
 O2266    O    -0.49370   -1.00006   0.22858   
 O2267    O    -0.49370   -1.33332   0.22858   
 O2268    O    -0.49370   -1.66658   0.22858   
 Mg2269   Mg   -0.49370   -1.16664   0.07620   
 Mg2270   Mg   -0.49369   -1.50000   0.07619   
 Mg2271   Mg   -0.49377   -1.83332   0.07620   
 Mg2272   Mg   -0.49369   -1.16664   0.22858   
 Mg2273   Mg   -0.49367   -1.50000   0.22858   
 Mg2274   Mg   -0.49371   -1.83332   0.22857   
 Mg2275   Mg   -0.49369   -1.99994   0.00001   
 Mg2276   Mg   -0.49368   -1.33332   0.00001   
 Mg2277   Mg   -0.49369   -1.66671   0.00001   
 Mg2278   Mg   -0.49374   -1.99993   0.15239   
 Mg2279   Mg   -0.49367   -1.33332   0.15239   
 Mg2280   Mg   -0.49373   -1.66671   0.15239   
 O2281    O    -0.26240   -1.16666   0.07620   
 O2282    O    -0.26240   -1.49997   0.07620   
 O2283    O    -0.26240   -1.83332   0.07619   
 O2284    O    -0.26237   -1.16667   0.22858   
 O2285    O    -0.26237   -1.49998   0.22858   
 O2286    O    -0.26259   -1.83331   0.22858   
 O2287    O    -0.26238   -1.99997   0.00001   
 O2288    O    -0.26244   -1.33332   0.00001   
 O2289    O    -0.26238   -1.66667   0.00001   
 O2290    O    -0.26241   -1.99998   0.15239   
 O2291    O    -0.26241   -1.33332   0.15239   
 O2292    O    -0.26240   -1.66666   0.15239   
 Mg2293   Mg   -0.26870   -1.00002   0.07619   
 Mg2294   Mg   -0.26869   -1.33333   0.07620   
 Mg2295   Mg   -0.26870   -1.66664   0.07619   
 Mg2296   Mg   -0.26869   -1.00001   0.22858   
 Mg2297   Mg   -0.26868   -1.33332   0.22857   
 Mg2298   Mg   -0.26868   -1.66663   0.22858   
 Mg2299   Mg   -0.26869   -1.16667   0.00001   
 Mg2300   Mg   -0.26869   -1.49999   0.00001   
 Mg2301   Mg   -0.26869   -1.83333   0.00001   
 Mg2302   Mg   -0.26871   -1.16667   0.15238   
 Mg2303   Mg   -0.26870   -1.49999   0.15238   
 Mg2304   Mg   -0.26866   -1.83333   0.15237   
 O2305    O    -1.72499   -1.99998   0.00001   
 O2306    O    -1.72493   -1.33333   0.00001   
 O2307    O    -1.72499   -1.66667   0.00001   
 O2308    O    -1.72503   -1.99998   0.15238   
 O2309    O    -1.72496   -1.33332   0.15238   
 O2310    O    -1.72502   -1.66667   0.15239   
 Mg2311   Mg   -1.71870   -1.00001   0.07619   
 Mg2312   Mg   -1.71868   -1.33331   0.07621   
 Mg2313   Mg   -1.71869   -1.66661   0.07619   
 Mg2314   Mg   -1.71872   -1.00002   0.22858   
 Mg2315   Mg   -1.71869   -1.33332   0.22858   
 Mg2316   Mg   -1.71872   -1.66662   0.22858   
 Mg2317   Mg   -1.71868   -1.16666   0.00001   
 Mg2318   Mg   -1.71868   -1.49997   0.00001   
 Mg2319   Mg   -1.71873   -1.83332   0.00000   
 Mg2320   Mg   -1.71869   -1.16667   0.15239   
 Mg2321   Mg   -1.71869   -1.49996   0.15239   
 Mg2322   Mg   -1.71873   -1.83330   0.15238   
 O2323    O    -1.72500   -1.16666   0.07619   
 O2324    O    -1.72500   -1.50000   0.07619   
 O2325    O    -1.72500   -1.83333   0.07620   
 O2326    O    -1.72504   -1.16665   0.22857   
 O2327    O    -1.72503   -1.49998   0.22857   
 O2328    O    -1.72485   -1.83334   0.22858   
 O2329    O    -1.49369   -1.16667   0.00001   
 O2330    O    -1.49369   -1.49997   0.00001   
 O2331    O    -1.49371   -1.83332   0.00001   
 O2332    O    -1.49371   -1.16667   0.15238   
 O2333    O    -1.49372   -1.49998   0.15238   
 O2334    O    -1.49373   -1.83332   0.15238   
 O2335    O    -1.49368   -1.00004   0.07619   
 O2336    O    -1.49370   -1.33332   0.07620   
 O2337    O    -1.49368   -1.66660   0.07620   
 O2338    O    -1.49370   -1.00006   0.22858   
 O2339    O    -1.49370   -1.33332   0.22858   
 O2340    O    -1.49370   -1.66658   0.22858   
 Mg2341   Mg   -1.49370   -1.16664   0.07620   
 Mg2342   Mg   -1.49369   -1.50000   0.07619   
 Mg2343   Mg   -1.49377   -1.83332   0.07620   
 Mg2344   Mg   -1.49369   -1.16664   0.22858   
 Mg2345   Mg   -1.49367   -1.50000   0.22858   
 Mg2346   Mg   -1.49371   -1.83332   0.22857   
 Mg2347   Mg   -1.49369   -1.99994   0.00001   
 Mg2348   Mg   -1.49368   -1.33332   0.00001   
 Mg2349   Mg   -1.49369   -1.66671   0.00001   
 Mg2350   Mg   -1.49374   -1.99993   0.15239   
 Mg2351   Mg   -1.49367   -1.33332   0.15239   
 Mg2352   Mg   -1.49373   -1.66671   0.15239   
 O2353    O    -1.26240   -1.16666   0.07620   
 O2354    O    -1.26240   -1.49997   0.07620   
 O2355    O    -1.26240   -1.83332   0.07619   
 O2356    O    -1.26237   -1.16667   0.22858   
 O2357    O    -1.26237   -1.49998   0.22858   
 O2358    O    -1.26259   -1.83331   0.22858   
 O2359    O    -1.26238   -1.99997   0.00001   
 O2360    O    -1.26244   -1.33332   0.00001   
 O2361    O    -1.26238   -1.66667   0.00001   
 O2362    O    -1.26241   -1.99998   0.15239   
 O2363    O    -1.26241   -1.33332   0.15239   
 O2364    O    -1.26240   -1.66666   0.15239   
 Mg2365   Mg   -1.26870   -1.00002   0.07619   
 Mg2366   Mg   -1.26869   -1.33333   0.07620   
 Mg2367   Mg   -1.26870   -1.66664   0.07619   
 Mg2368   Mg   -1.26869   -1.00001   0.22858   
 Mg2369   Mg   -1.26868   -1.33332   0.22857   
 Mg2370   Mg   -1.26868   -1.66663   0.22858   
 Mg2371   Mg   -1.26869   -1.16667   0.00001   
 Mg2372   Mg   -1.26869   -1.49999   0.00001   
 Mg2373   Mg   -1.26869   -1.83333   0.00001   
 Mg2374   Mg   -1.26871   -1.16667   0.15238   
 Mg2375   Mg   -1.26870   -1.49999   0.15238   
 Mg2376   Mg   -1.26866   -1.83333   0.15237   
 O2377    O    -2.72499   -1.99998   0.00001   
 O2378    O    -2.72493   -1.33333   0.00001   
 O2379    O    -2.72499   -1.66667   0.00001   
 O2380    O    -2.72503   -1.99998   0.15238   
 O2381    O    -2.72496   -1.33332   0.15238   
 O2382    O    -2.72502   -1.66667   0.15239   
 Mg2383   Mg   -2.71870   -1.00001   0.07619   
 Mg2384   Mg   -2.71868   -1.33331   0.07621   
 Mg2385   Mg   -2.71869   -1.66661   0.07619   
 Mg2386   Mg   -2.71872   -1.00002   0.22858   
 Mg2387   Mg   -2.71869   -1.33332   0.22858   
 Mg2388   Mg   -2.71872   -1.66662   0.22858   
 Mg2389   Mg   -2.71868   -1.16666   0.00001   
 Mg2390   Mg   -2.71868   -1.49997   0.00001   
 Mg2391   Mg   -2.71873   -1.83332   0.00000   
 Mg2392   Mg   -2.71869   -1.16667   0.15239   
 Mg2393   Mg   -2.71869   -1.49996   0.15239   
 Mg2394   Mg   -2.71873   -1.83330   0.15238   
 O2395    O    -2.72500   -1.16666   0.07619   
 O2396    O    -2.72500   -1.50000   0.07619   
 O2397    O    -2.72500   -1.83333   0.07620   
 O2398    O    -2.72504   -1.16665   0.22857   
 O2399    O    -2.72503   -1.49998   0.22857   
 O2400    O    -2.72485   -1.83334   0.22858   
 O2401    O    -2.49369   -1.16667   0.00001   
 O2402    O    -2.49369   -1.49997   0.00001   
 O2403    O    -2.49371   -1.83332   0.00001   
 O2404    O    -2.49371   -1.16667   0.15238   
 O2405    O    -2.49372   -1.49998   0.15238   
 O2406    O    -2.49373   -1.83332   0.15238   
 O2407    O    -2.49368   -1.00004   0.07619   
 O2408    O    -2.49370   -1.33332   0.07620   
 O2409    O    -2.49368   -1.66660   0.07620   
 O2410    O    -2.49370   -1.00006   0.22858   
 O2411    O    -2.49370   -1.33332   0.22858   
 O2412    O    -2.49370   -1.66658   0.22858   
 Mg2413   Mg   -2.49370   -1.16664   0.07620   
 Mg2414   Mg   -2.49369   -1.50000   0.07619   
 Mg2415   Mg   -2.49377   -1.83332   0.07620   
 Mg2416   Mg   -2.49369   -1.16664   0.22858   
 Mg2417   Mg   -2.49367   -1.50000   0.22858   
 Mg2418   Mg   -2.49371   -1.83332   0.22857   
 Mg2419   Mg   -2.49369   -1.99994   0.00001   
 Mg2420   Mg   -2.49368   -1.33332   0.00001   
 Mg2421   Mg   -2.49369   -1.66671   0.00001   
 Mg2422   Mg   -2.49374   -1.99993   0.15239   
 Mg2423   Mg   -2.49367   -1.33332   0.15239   
 Mg2424   Mg   -2.49373   -1.66671   0.15239   
 O2425    O    -2.26240   -1.16666   0.07620   
 O2426    O    -2.26240   -1.49997   0.07620   
 O2427    O    -2.26240   -1.83332   0.07619   
 O2428    O    -2.26237   -1.16667   0.22858   
 O2429    O    -2.26237   -1.49998   0.22858   
 O2430    O    -2.26259   -1.83331   0.22858   
 O2431    O    -2.26238   -1.99997   0.00001   
 O2432    O    -2.26244   -1.33332   0.00001   
 O2433    O    -2.26238   -1.66667   0.00001   
 O2434    O    -2.26241   -1.99998   0.15239   
 O2435    O    -2.26241   -1.33332   0.15239   
 O2436    O    -2.26240   -1.66666   0.15239   
 Mg2437   Mg   -2.26870   -1.00002   0.07619   
 Mg2438   Mg   -2.26869   -1.33333   0.07620   
 Mg2439   Mg   -2.26870   -1.66664   0.07619   
 Mg2440   Mg   -2.26869   -1.00001   0.22858   
 Mg2441   Mg   -2.26868   -1.33332   0.22857   
 Mg2442   Mg   -2.26868   -1.66663   0.22858   
 Mg2443   Mg   -2.26869   -1.16667   0.00001   
 Mg2444   Mg   -2.26869   -1.49999   0.00001   
 Mg2445   Mg   -2.26869   -1.83333   0.00001   
 Mg2446   Mg   -2.26871   -1.16667   0.15238   
 Mg2447   Mg   -2.26870   -1.49999   0.15238   
 Mg2448   Mg   -2.26866   -1.83333   0.15237   
 O2449    O    -3.72499   -1.99998   0.00001   
 O2450    O    -3.72493   -1.33333   0.00001   
 O2451    O    -3.72499   -1.66667   0.00001   
 O2452    O    -3.72503   -1.99998   0.15238   
 O2453    O    -3.72496   -1.33332   0.15238   
 O2454    O    -3.72502   -1.66667   0.15239   
 Mg2455   Mg   -3.71870   -1.00001   0.07619   
 Mg2456   Mg   -3.71868   -1.33331   0.07621   
 Mg2457   Mg   -3.71869   -1.66661   0.07619   
 Mg2458   Mg   -3.71872   -1.00002   0.22858   
 Mg2459   Mg   -3.71869   -1.33332   0.22858   
 Mg2460   Mg   -3.71872   -1.66662   0.22858   
 Mg2461   Mg   -3.71868   -1.16666   0.00001   
 Mg2462   Mg   -3.71868   -1.49997   0.00001   
 Mg2463   Mg   -3.71873   -1.83332   0.00000   
 Mg2464   Mg   -3.71869   -1.16667   0.15239   
 Mg2465   Mg   -3.71869   -1.49996   0.15239   
 Mg2466   Mg   -3.71873   -1.83330   0.15238   
 O2467    O    -3.72500   -1.16666   0.07619   
 O2468    O    -3.72500   -1.50000   0.07619   
 O2469    O    -3.72500   -1.83333   0.07620   
 O2470    O    -3.72504   -1.16665   0.22857   
 O2471    O    -3.72503   -1.49998   0.22857   
 O2472    O    -3.72485   -1.83334   0.22858   
 O2473    O    -3.49369   -1.16667   0.00001   
 O2474    O    -3.49369   -1.49997   0.00001   
 O2475    O    -3.49371   -1.83332   0.00001   
 O2476    O    -3.49371   -1.16667   0.15238   
 O2477    O    -3.49372   -1.49998   0.15238   
 O2478    O    -3.49373   -1.83332   0.15238   
 O2479    O    -3.49368   -1.00004   0.07619   
 O2480    O    -3.49370   -1.33332   0.07620   
 O2481    O    -3.49368   -1.66660   0.07620   
 O2482    O    -3.49370   -1.00006   0.22858   
 O2483    O    -3.49370   -1.33332   0.22858   
 O2484    O    -3.49370   -1.66658   0.22858   
 Mg2485   Mg   -3.49370   -1.16664   0.07620   
 Mg2486   Mg   -3.49369   -1.50000   0.07619   
 Mg2487   Mg   -3.49377   -1.83332   0.07620   
 Mg2488   Mg   -3.49369   -1.16664   0.22858   
 Mg2489   Mg   -3.49367   -1.50000   0.22858   
 Mg2490   Mg   -3.49371   -1.83332   0.22857   
 Mg2491   Mg   -3.49369   -1.99994   0.00001   
 Mg2492   Mg   -3.49368   -1.33332   0.00001   
 Mg2493   Mg   -3.49369   -1.66671   0.00001   
 Mg2494   Mg   -3.49374   -1.99993   0.15239   
 Mg2495   Mg   -3.49367   -1.33332   0.15239   
 Mg2496   Mg   -3.49373   -1.66671   0.15239   
 O2497    O    -3.26240   -1.16666   0.07620   
 O2498    O    -3.26240   -1.49997   0.07620   
 O2499    O    -3.26240   -1.83332   0.07619   
 O2500    O    -3.26237   -1.16667   0.22858   
 O2501    O    -3.26237   -1.49998   0.22858   
 O2502    O    -3.26259   -1.83331   0.22858   
 O2503    O    -3.26238   -1.99997   0.00001   
 O2504    O    -3.26244   -1.33332   0.00001   
 O2505    O    -3.26238   -1.66667   0.00001   
 O2506    O    -3.26241   -1.99998   0.15239   
 O2507    O    -3.26241   -1.33332   0.15239   
 O2508    O    -3.26240   -1.66666   0.15239   
 Mg2509   Mg   -3.26870   -1.00002   0.07619   
 Mg2510   Mg   -3.26869   -1.33333   0.07620   
 Mg2511   Mg   -3.26870   -1.66664   0.07619   
 Mg2512   Mg   -3.26869   -1.00001   0.22858   
 Mg2513   Mg   -3.26868   -1.33332   0.22857   
 Mg2514   Mg   -3.26868   -1.66663   0.22858   
 Mg2515   Mg   -3.26869   -1.16667   0.00001   
 Mg2516   Mg   -3.26869   -1.49999   0.00001   
 Mg2517   Mg   -3.26869   -1.83333   0.00001   
 Mg2518   Mg   -3.26871   -1.16667   0.15238   
 Mg2519   Mg   -3.26870   -1.49999   0.15238   
 Mg2520   Mg   -3.26866   -1.83333   0.15237   
 O2521    O    2.27501    -2.99998   0.00001   
 O2522    O    2.27507    -2.33333   0.00001   
 O2523    O    2.27501    -2.66667   0.00001   
 O2524    O    2.27497    -2.99998   0.15238   
 O2525    O    2.27504    -2.33332   0.15238   
 O2526    O    2.27498    -2.66667   0.15239   
 Mg2527   Mg   2.28130    -2.00001   0.07619   
 Mg2528   Mg   2.28132    -2.33331   0.07621   
 Mg2529   Mg   2.28131    -2.66661   0.07619   
 Mg2530   Mg   2.28128    -2.00002   0.22858   
 Mg2531   Mg   2.28131    -2.33332   0.22858   
 Mg2532   Mg   2.28128    -2.66662   0.22858   
 Mg2533   Mg   2.28132    -2.16666   0.00001   
 Mg2534   Mg   2.28132    -2.49997   0.00001   
 Mg2535   Mg   2.28127    -2.83332   0.00000   
 Mg2536   Mg   2.28131    -2.16667   0.15239   
 Mg2537   Mg   2.28131    -2.49996   0.15239   
 Mg2538   Mg   2.28127    -2.83330   0.15238   
 O2539    O    2.27500    -2.16666   0.07619   
 O2540    O    2.27500    -2.50000   0.07619   
 O2541    O    2.27500    -2.83333   0.07620   
 O2542    O    2.27496    -2.16665   0.22857   
 O2543    O    2.27497    -2.49998   0.22857   
 O2544    O    2.27515    -2.83334   0.22858   
 O2545    O    2.50631    -2.16667   0.00001   
 O2546    O    2.50631    -2.49997   0.00001   
 O2547    O    2.50629    -2.83332   0.00001   
 O2548    O    2.50629    -2.16667   0.15238   
 O2549    O    2.50628    -2.49998   0.15238   
 O2550    O    2.50627    -2.83332   0.15238   
 O2551    O    2.50632    -2.00004   0.07619   
 O2552    O    2.50630    -2.33332   0.07620   
 O2553    O    2.50632    -2.66660   0.07620   
 O2554    O    2.50630    -2.00006   0.22858   
 O2555    O    2.50630    -2.33332   0.22858   
 O2556    O    2.50630    -2.66658   0.22858   
 Mg2557   Mg   2.50630    -2.16664   0.07620   
 Mg2558   Mg   2.50631    -2.50000   0.07619   
 Mg2559   Mg   2.50623    -2.83332   0.07620   
 Mg2560   Mg   2.50631    -2.16664   0.22858   
 Mg2561   Mg   2.50633    -2.50000   0.22858   
 Mg2562   Mg   2.50629    -2.83332   0.22857   
 Mg2563   Mg   2.50631    -2.99994   0.00001   
 Mg2564   Mg   2.50632    -2.33332   0.00001   
 Mg2565   Mg   2.50631    -2.66671   0.00001   
 Mg2566   Mg   2.50626    -2.99993   0.15239   
 Mg2567   Mg   2.50633    -2.33332   0.15239   
 Mg2568   Mg   2.50627    -2.66671   0.15239   
 O2569    O    2.73760    -2.16666   0.07620   
 O2570    O    2.73760    -2.49997   0.07620   
 O2571    O    2.73760    -2.83332   0.07619   
 O2572    O    2.73763    -2.16667   0.22858   
 O2573    O    2.73763    -2.49998   0.22858   
 O2574    O    2.73741    -2.83331   0.22858   
 O2575    O    2.73762    -2.99997   0.00001   
 O2576    O    2.73756    -2.33332   0.00001   
 O2577    O    2.73762    -2.66667   0.00001   
 O2578    O    2.73759    -2.99998   0.15239   
 O2579    O    2.73759    -2.33332   0.15239   
 O2580    O    2.73760    -2.66666   0.15239   
 Mg2581   Mg   2.73130    -2.00002   0.07619   
 Mg2582   Mg   2.73131    -2.33333   0.07620   
 Mg2583   Mg   2.73130    -2.66664   0.07619   
 Mg2584   Mg   2.73131    -2.00001   0.22858   
 Mg2585   Mg   2.73132    -2.33332   0.22857   
 Mg2586   Mg   2.73132    -2.66663   0.22858   
 Mg2587   Mg   2.73131    -2.16667   0.00001   
 Mg2588   Mg   2.73131    -2.49999   0.00001   
 Mg2589   Mg   2.73131    -2.83333   0.00001   
 Mg2590   Mg   2.73129    -2.16667   0.15238   
 Mg2591   Mg   2.73130    -2.49999   0.15238   
 Mg2592   Mg   2.73134    -2.83333   0.15237   
 O2593    O    1.27501    -2.99998   0.00001   
 O2594    O    1.27507    -2.33333   0.00001   
 O2595    O    1.27501    -2.66667   0.00001   
 O2596    O    1.27497    -2.99998   0.15238   
 O2597    O    1.27504    -2.33332   0.15238   
 O2598    O    1.27498    -2.66667   0.15239   
 Mg2599   Mg   1.28130    -2.00001   0.07619   
 Mg2600   Mg   1.28132    -2.33331   0.07621   
 Mg2601   Mg   1.28131    -2.66661   0.07619   
 Mg2602   Mg   1.28128    -2.00002   0.22858   
 Mg2603   Mg   1.28131    -2.33332   0.22858   
 Mg2604   Mg   1.28128    -2.66662   0.22858   
 Mg2605   Mg   1.28132    -2.16666   0.00001   
 Mg2606   Mg   1.28132    -2.49997   0.00001   
 Mg2607   Mg   1.28127    -2.83332   0.00000   
 Mg2608   Mg   1.28131    -2.16667   0.15239   
 Mg2609   Mg   1.28131    -2.49996   0.15239   
 Mg2610   Mg   1.28127    -2.83330   0.15238   
 O2611    O    1.27500    -2.16666   0.07619   
 O2612    O    1.27500    -2.50000   0.07619   
 O2613    O    1.27500    -2.83333   0.07620   
 O2614    O    1.27496    -2.16665   0.22857   
 O2615    O    1.27497    -2.49998   0.22857   
 O2616    O    1.27515    -2.83334   0.22858   
 O2617    O    1.50631    -2.16667   0.00001   
 O2618    O    1.50631    -2.49997   0.00001   
 O2619    O    1.50629    -2.83332   0.00001   
 O2620    O    1.50629    -2.16667   0.15238   
 O2621    O    1.50628    -2.49998   0.15238   
 O2622    O    1.50627    -2.83332   0.15238   
 O2623    O    1.50632    -2.00004   0.07619   
 O2624    O    1.50630    -2.33332   0.07620   
 O2625    O    1.50632    -2.66660   0.07620   
 O2626    O    1.50630    -2.00006   0.22858   
 O2627    O    1.50630    -2.33332   0.22858   
 O2628    O    1.50630    -2.66658   0.22858   
 Mg2629   Mg   1.50630    -2.16664   0.07620   
 Mg2630   Mg   1.50631    -2.50000   0.07619   
 Mg2631   Mg   1.50623    -2.83332   0.07620   
 Mg2632   Mg   1.50631    -2.16664   0.22858   
 Mg2633   Mg   1.50633    -2.50000   0.22858   
 Mg2634   Mg   1.50629    -2.83332   0.22857   
 Mg2635   Mg   1.50631    -2.99994   0.00001   
 Mg2636   Mg   1.50632    -2.33332   0.00001   
 Mg2637   Mg   1.50631    -2.66671   0.00001   
 Mg2638   Mg   1.50626    -2.99993   0.15239   
 Mg2639   Mg   1.50633    -2.33332   0.15239   
 Mg2640   Mg   1.50627    -2.66671   0.15239   
 O2641    O    1.73760    -2.16666   0.07620   
 O2642    O    1.73760    -2.49997   0.07620   
 O2643    O    1.73760    -2.83332   0.07619   
 O2644    O    1.73763    -2.16667   0.22858   
 O2645    O    1.73763    -2.49998   0.22858   
 O2646    O    1.73741    -2.83331   0.22858   
 O2647    O    1.73762    -2.99997   0.00001   
 O2648    O    1.73756    -2.33332   0.00001   
 O2649    O    1.73762    -2.66667   0.00001   
 O2650    O    1.73759    -2.99998   0.15239   
 O2651    O    1.73759    -2.33332   0.15239   
 O2652    O    1.73760    -2.66666   0.15239   
 Mg2653   Mg   1.73130    -2.00002   0.07619   
 Mg2654   Mg   1.73131    -2.33333   0.07620   
 Mg2655   Mg   1.73130    -2.66664   0.07619   
 Mg2656   Mg   1.73131    -2.00001   0.22858   
 Mg2657   Mg   1.73132    -2.33332   0.22857   
 Mg2658   Mg   1.73132    -2.66663   0.22858   
 Mg2659   Mg   1.73131    -2.16667   0.00001   
 Mg2660   Mg   1.73131    -2.49999   0.00001   
 Mg2661   Mg   1.73131    -2.83333   0.00001   
 Mg2662   Mg   1.73129    -2.16667   0.15238   
 Mg2663   Mg   1.73130    -2.49999   0.15238   
 Mg2664   Mg   1.73134    -2.83333   0.15237   
 O2665    O    0.27501    -2.99998   0.00001   
 O2666    O    0.27507    -2.33333   0.00001   
 O2667    O    0.27501    -2.66667   0.00001   
 O2668    O    0.27497    -2.99998   0.15238   
 O2669    O    0.27504    -2.33332   0.15238   
 O2670    O    0.27498    -2.66667   0.15239   
 Mg2671   Mg   0.28130    -2.00001   0.07619   
 Mg2672   Mg   0.28132    -2.33331   0.07621   
 Mg2673   Mg   0.28131    -2.66661   0.07619   
 Mg2674   Mg   0.28128    -2.00002   0.22858   
 Mg2675   Mg   0.28131    -2.33332   0.22858   
 Mg2676   Mg   0.28128    -2.66662   0.22858   
 Mg2677   Mg   0.28132    -2.16666   0.00001   
 Mg2678   Mg   0.28132    -2.49997   0.00001   
 Mg2679   Mg   0.28127    -2.83332   0.00000   
 Mg2680   Mg   0.28131    -2.16667   0.15239   
 Mg2681   Mg   0.28131    -2.49996   0.15239   
 Mg2682   Mg   0.28127    -2.83330   0.15238   
 O2683    O    0.27500    -2.16666   0.07619   
 O2684    O    0.27500    -2.50000   0.07619   
 O2685    O    0.27500    -2.83333   0.07620   
 O2686    O    0.27496    -2.16665   0.22857   
 O2687    O    0.27497    -2.49998   0.22857   
 O2688    O    0.27515    -2.83334   0.22858   
 O2689    O    0.50631    -2.16667   0.00001   
 O2690    O    0.50631    -2.49997   0.00001   
 O2691    O    0.50629    -2.83332   0.00001   
 O2692    O    0.50629    -2.16667   0.15238   
 O2693    O    0.50628    -2.49998   0.15238   
 O2694    O    0.50627    -2.83332   0.15238   
 O2695    O    0.50632    -2.00004   0.07619   
 O2696    O    0.50630    -2.33332   0.07620   
 O2697    O    0.50632    -2.66660   0.07620   
 O2698    O    0.50630    -2.00006   0.22858   
 O2699    O    0.50630    -2.33332   0.22858   
 O2700    O    0.50630    -2.66658   0.22858   
 Mg2701   Mg   0.50630    -2.16664   0.07620   
 Mg2702   Mg   0.50631    -2.50000   0.07619   
 Mg2703   Mg   0.50623    -2.83332   0.07620   
 Mg2704   Mg   0.50631    -2.16664   0.22858   
 Mg2705   Mg   0.50633    -2.50000   0.22858   
 Mg2706   Mg   0.50629    -2.83332   0.22857   
 Mg2707   Mg   0.50631    -2.99994   0.00001   
 Mg2708   Mg   0.50632    -2.33332   0.00001   
 Mg2709   Mg   0.50631    -2.66671   0.00001   
 Mg2710   Mg   0.50626    -2.99993   0.15239   
 Mg2711   Mg   0.50633    -2.33332   0.15239   
 Mg2712   Mg   0.50627    -2.66671   0.15239   
 O2713    O    0.73760    -2.16666   0.07620   
 O2714    O    0.73760    -2.49997   0.07620   
 O2715    O    0.73760    -2.83332   0.07619   
 O2716    O    0.73763    -2.16667   0.22858   
 O2717    O    0.73763    -2.49998   0.22858   
 O2718    O    0.73741    -2.83331   0.22858   
 O2719    O    0.73762    -2.99997   0.00001   
 O2720    O    0.73756    -2.33332   0.00001   
 O2721    O    0.73762    -2.66667   0.00001   
 O2722    O    0.73759    -2.99998   0.15239   
 O2723    O    0.73759    -2.33332   0.15239   
 O2724    O    0.73760    -2.66666   0.15239   
 Mg2725   Mg   0.73130    -2.00002   0.07619   
 Mg2726   Mg   0.73131    -2.33333   0.07620   
 Mg2727   Mg   0.73130    -2.66664   0.07619   
 Mg2728   Mg   0.73131    -2.00001   0.22858   
 Mg2729   Mg   0.73132    -2.33332   0.22857   
 Mg2730   Mg   0.73132    -2.66663   0.22858   
 Mg2731   Mg   0.73131    -2.16667   0.00001   
 Mg2732   Mg   0.73131    -2.49999   0.00001   
 Mg2733   Mg   0.73131    -2.83333   0.00001   
 Mg2734   Mg   0.73129    -2.16667   0.15238   
 Mg2735   Mg   0.73130    -2.49999   0.15238   
 Mg2736   Mg   0.73134    -2.83333   0.15237   
 O2737    O    -0.72499   -2.99998   0.00001   
 O2738    O    -0.72493   -2.33333   0.00001   
 O2739    O    -0.72499   -2.66667   0.00001   
 O2740    O    -0.72503   -2.99998   0.15238   
 O2741    O    -0.72496   -2.33332   0.15238   
 O2742    O    -0.72502   -2.66667   0.15239   
 Mg2743   Mg   -0.71870   -2.00001   0.07619   
 Mg2744   Mg   -0.71868   -2.33331   0.07621   
 Mg2745   Mg   -0.71869   -2.66661   0.07619   
 Mg2746   Mg   -0.71872   -2.00002   0.22858   
 Mg2747   Mg   -0.71869   -2.33332   0.22858   
 Mg2748   Mg   -0.71872   -2.66662   0.22858   
 Mg2749   Mg   -0.71868   -2.16666   0.00001   
 Mg2750   Mg   -0.71868   -2.49997   0.00001   
 Mg2751   Mg   -0.71873   -2.83332   0.00000   
 Mg2752   Mg   -0.71869   -2.16667   0.15239   
 Mg2753   Mg   -0.71869   -2.49996   0.15239   
 Mg2754   Mg   -0.71873   -2.83330   0.15238   
 O2755    O    -0.72500   -2.16666   0.07619   
 O2756    O    -0.72500   -2.50000   0.07619   
 O2757    O    -0.72500   -2.83333   0.07620   
 O2758    O    -0.72504   -2.16665   0.22857   
 O2759    O    -0.72503   -2.49998   0.22857   
 O2760    O    -0.72485   -2.83334   0.22858   
 O2761    O    -0.49369   -2.16667   0.00001   
 O2762    O    -0.49369   -2.49997   0.00001   
 O2763    O    -0.49371   -2.83332   0.00001   
 O2764    O    -0.49371   -2.16667   0.15238   
 O2765    O    -0.49372   -2.49998   0.15238   
 O2766    O    -0.49373   -2.83332   0.15238   
 O2767    O    -0.49368   -2.00004   0.07619   
 O2768    O    -0.49370   -2.33332   0.07620   
 O2769    O    -0.49368   -2.66660   0.07620   
 O2770    O    -0.49370   -2.00006   0.22858   
 O2771    O    -0.49370   -2.33332   0.22858   
 O2772    O    -0.49370   -2.66658   0.22858   
 Mg2773   Mg   -0.49370   -2.16664   0.07620   
 Mg2774   Mg   -0.49369   -2.50000   0.07619   
 Mg2775   Mg   -0.49377   -2.83332   0.07620   
 Mg2776   Mg   -0.49369   -2.16664   0.22858   
 Mg2777   Mg   -0.49367   -2.50000   0.22858   
 Mg2778   Mg   -0.49371   -2.83332   0.22857   
 Mg2779   Mg   -0.49369   -2.99994   0.00001   
 Mg2780   Mg   -0.49368   -2.33332   0.00001   
 Mg2781   Mg   -0.49369   -2.66671   0.00001   
 Mg2782   Mg   -0.49374   -2.99993   0.15239   
 Mg2783   Mg   -0.49367   -2.33332   0.15239   
 Mg2784   Mg   -0.49373   -2.66671   0.15239   
 O2785    O    -0.26240   -2.16666   0.07620   
 O2786    O    -0.26240   -2.49997   0.07620   
 O2787    O    -0.26240   -2.83332   0.07619   
 O2788    O    -0.26237   -2.16667   0.22858   
 O2789    O    -0.26237   -2.49998   0.22858   
 O2790    O    -0.26259   -2.83331   0.22858   
 O2791    O    -0.26238   -2.99997   0.00001   
 O2792    O    -0.26244   -2.33332   0.00001   
 O2793    O    -0.26238   -2.66667   0.00001   
 O2794    O    -0.26241   -2.99998   0.15239   
 O2795    O    -0.26241   -2.33332   0.15239   
 O2796    O    -0.26240   -2.66666   0.15239   
 Mg2797   Mg   -0.26870   -2.00002   0.07619   
 Mg2798   Mg   -0.26869   -2.33333   0.07620   
 Mg2799   Mg   -0.26870   -2.66664   0.07619   
 Mg2800   Mg   -0.26869   -2.00001   0.22858   
 Mg2801   Mg   -0.26868   -2.33332   0.22857   
 Mg2802   Mg   -0.26868   -2.66663   0.22858   
 Mg2803   Mg   -0.26869   -2.16667   0.00001   
 Mg2804   Mg   -0.26869   -2.49999   0.00001   
 Mg2805   Mg   -0.26869   -2.83333   0.00001   
 Mg2806   Mg   -0.26871   -2.16667   0.15238   
 Mg2807   Mg   -0.26870   -2.49999   0.15238   
 Mg2808   Mg   -0.26866   -2.83333   0.15237   
 O2809    O    -1.72499   -2.99998   0.00001   
 O2810    O    -1.72493   -2.33333   0.00001   
 O2811    O    -1.72499   -2.66667   0.00001   
 O2812    O    -1.72503   -2.99998   0.15238   
 O2813    O    -1.72496   -2.33332   0.15238   
 O2814    O    -1.72502   -2.66667   0.15239   
 Mg2815   Mg   -1.71870   -2.00001   0.07619   
 Mg2816   Mg   -1.71868   -2.33331   0.07621   
 Mg2817   Mg   -1.71869   -2.66661   0.07619   
 Mg2818   Mg   -1.71872   -2.00002   0.22858   
 Mg2819   Mg   -1.71869   -2.33332   0.22858   
 Mg2820   Mg   -1.71872   -2.66662   0.22858   
 Mg2821   Mg   -1.71868   -2.16666   0.00001   
 Mg2822   Mg   -1.71868   -2.49997   0.00001   
 Mg2823   Mg   -1.71873   -2.83332   0.00000   
 Mg2824   Mg   -1.71869   -2.16667   0.15239   
 Mg2825   Mg   -1.71869   -2.49996   0.15239   
 Mg2826   Mg   -1.71873   -2.83330   0.15238   
 O2827    O    -1.72500   -2.16666   0.07619   
 O2828    O    -1.72500   -2.50000   0.07619   
 O2829    O    -1.72500   -2.83333   0.07620   
 O2830    O    -1.72504   -2.16665   0.22857   
 O2831    O    -1.72503   -2.49998   0.22857   
 O2832    O    -1.72485   -2.83334   0.22858   
 O2833    O    -1.49369   -2.16667   0.00001   
 O2834    O    -1.49369   -2.49997   0.00001   
 O2835    O    -1.49371   -2.83332   0.00001   
 O2836    O    -1.49371   -2.16667   0.15238   
 O2837    O    -1.49372   -2.49998   0.15238   
 O2838    O    -1.49373   -2.83332   0.15238   
 O2839    O    -1.49368   -2.00004   0.07619   
 O2840    O    -1.49370   -2.33332   0.07620   
 O2841    O    -1.49368   -2.66660   0.07620   
 O2842    O    -1.49370   -2.00006   0.22858   
 O2843    O    -1.49370   -2.33332   0.22858   
 O2844    O    -1.49370   -2.66658   0.22858   
 Mg2845   Mg   -1.49370   -2.16664   0.07620   
 Mg2846   Mg   -1.49369   -2.50000   0.07619   
 Mg2847   Mg   -1.49377   -2.83332   0.07620   
 Mg2848   Mg   -1.49369   -2.16664   0.22858   
 Mg2849   Mg   -1.49367   -2.50000   0.22858   
 Mg2850   Mg   -1.49371   -2.83332   0.22857   
 Mg2851   Mg   -1.49369   -2.99994   0.00001   
 Mg2852   Mg   -1.49368   -2.33332   0.00001   
 Mg2853   Mg   -1.49369   -2.66671   0.00001   
 Mg2854   Mg   -1.49374   -2.99993   0.15239   
 Mg2855   Mg   -1.49367   -2.33332   0.15239   
 Mg2856   Mg   -1.49373   -2.66671   0.15239   
 O2857    O    -1.26240   -2.16666   0.07620   
 O2858    O    -1.26240   -2.49997   0.07620   
 O2859    O    -1.26240   -2.83332   0.07619   
 O2860    O    -1.26237   -2.16667   0.22858   
 O2861    O    -1.26237   -2.49998   0.22858   
 O2862    O    -1.26259   -2.83331   0.22858   
 O2863    O    -1.26238   -2.99997   0.00001   
 O2864    O    -1.26244   -2.33332   0.00001   
 O2865    O    -1.26238   -2.66667   0.00001   
 O2866    O    -1.26241   -2.99998   0.15239   
 O2867    O    -1.26241   -2.33332   0.15239   
 O2868    O    -1.26240   -2.66666   0.15239   
 Mg2869   Mg   -1.26870   -2.00002   0.07619   
 Mg2870   Mg   -1.26869   -2.33333   0.07620   
 Mg2871   Mg   -1.26870   -2.66664   0.07619   
 Mg2872   Mg   -1.26869   -2.00001   0.22858   
 Mg2873   Mg   -1.26868   -2.33332   0.22857   
 Mg2874   Mg   -1.26868   -2.66663   0.22858   
 Mg2875   Mg   -1.26869   -2.16667   0.00001   
 Mg2876   Mg   -1.26869   -2.49999   0.00001   
 Mg2877   Mg   -1.26869   -2.83333   0.00001   
 Mg2878   Mg   -1.26871   -2.16667   0.15238   
 Mg2879   Mg   -1.26870   -2.49999   0.15238   
 Mg2880   Mg   -1.26866   -2.83333   0.15237   
 O2881    O    -2.72499   -2.99998   0.00001   
 O2882    O    -2.72493   -2.33333   0.00001   
 O2883    O    -2.72499   -2.66667   0.00001   
 O2884    O    -2.72503   -2.99998   0.15238   
 O2885    O    -2.72496   -2.33332   0.15238   
 O2886    O    -2.72502   -2.66667   0.15239   
 Mg2887   Mg   -2.71870   -2.00001   0.07619   
 Mg2888   Mg   -2.71868   -2.33331   0.07621   
 Mg2889   Mg   -2.71869   -2.66661   0.07619   
 Mg2890   Mg   -2.71872   -2.00002   0.22858   
 Mg2891   Mg   -2.71869   -2.33332   0.22858   
 Mg2892   Mg   -2.71872   -2.66662   0.22858   
 Mg2893   Mg   -2.71868   -2.16666   0.00001   
 Mg2894   Mg   -2.71868   -2.49997   0.00001   
 Mg2895   Mg   -2.71873   -2.83332   0.00000   
 Mg2896   Mg   -2.71869   -2.16667   0.15239   
 Mg2897   Mg   -2.71869   -2.49996   0.15239   
 Mg2898   Mg   -2.71873   -2.83330   0.15238   
 O2899    O    -2.72500   -2.16666   0.07619   
 O2900    O    -2.72500   -2.50000   0.07619   
 O2901    O    -2.72500   -2.83333   0.07620   
 O2902    O    -2.72504   -2.16665   0.22857   
 O2903    O    -2.72503   -2.49998   0.22857   
 O2904    O    -2.72485   -2.83334   0.22858   
 O2905    O    -2.49369   -2.16667   0.00001   
 O2906    O    -2.49369   -2.49997   0.00001   
 O2907    O    -2.49371   -2.83332   0.00001   
 O2908    O    -2.49371   -2.16667   0.15238   
 O2909    O    -2.49372   -2.49998   0.15238   
 O2910    O    -2.49373   -2.83332   0.15238   
 O2911    O    -2.49368   -2.00004   0.07619   
 O2912    O    -2.49370   -2.33332   0.07620   
 O2913    O    -2.49368   -2.66660   0.07620   
 O2914    O    -2.49370   -2.00006   0.22858   
 O2915    O    -2.49370   -2.33332   0.22858   
 O2916    O    -2.49370   -2.66658   0.22858   
 Mg2917   Mg   -2.49370   -2.16664   0.07620   
 Mg2918   Mg   -2.49369   -2.50000   0.07619   
 Mg2919   Mg   -2.49377   -2.83332   0.07620   
 Mg2920   Mg   -2.49369   -2.16664   0.22858   
 Mg2921   Mg   -2.49367   -2.50000   0.22858   
 Mg2922   Mg   -2.49371   -2.83332   0.22857   
 Mg2923   Mg   -2.49369   -2.99994   0.00001   
 Mg2924   Mg   -2.49368   -2.33332   0.00001   
 Mg2925   Mg   -2.49369   -2.66671   0.00001   
 Mg2926   Mg   -2.49374   -2.99993   0.15239   
 Mg2927   Mg   -2.49367   -2.33332   0.15239   
 Mg2928   Mg   -2.49373   -2.66671   0.15239   
 O2929    O    -2.26240   -2.16666   0.07620   
 O2930    O    -2.26240   -2.49997   0.07620   
 O2931    O    -2.26240   -2.83332   0.07619   
 O2932    O    -2.26237   -2.16667   0.22858   
 O2933    O    -2.26237   -2.49998   0.22858   
 O2934    O    -2.26259   -2.83331   0.22858   
 O2935    O    -2.26238   -2.99997   0.00001   
 O2936    O    -2.26244   -2.33332   0.00001   
 O2937    O    -2.26238   -2.66667   0.00001   
 O2938    O    -2.26241   -2.99998   0.15239   
 O2939    O    -2.26241   -2.33332   0.15239   
 O2940    O    -2.26240   -2.66666   0.15239   
 Mg2941   Mg   -2.26870   -2.00002   0.07619   
 Mg2942   Mg   -2.26869   -2.33333   0.07620   
 Mg2943   Mg   -2.26870   -2.66664   0.07619   
 Mg2944   Mg   -2.26869   -2.00001   0.22858   
 Mg2945   Mg   -2.26868   -2.33332   0.22857   
 Mg2946   Mg   -2.26868   -2.66663   0.22858   
 Mg2947   Mg   -2.26869   -2.16667   0.00001   
 Mg2948   Mg   -2.26869   -2.49999   0.00001   
 Mg2949   Mg   -2.26869   -2.83333   0.00001   
 Mg2950   Mg   -2.26871   -2.16667   0.15238   
 Mg2951   Mg   -2.26870   -2.49999   0.15238   
 Mg2952   Mg   -2.26866   -2.83333   0.15237   
 O2953    O    -3.72499   -2.99998   0.00001   
 O2954    O    -3.72493   -2.33333   0.00001   
 O2955    O    -3.72499   -2.66667   0.00001   
 O2956    O    -3.72503   -2.99998   0.15238   
 O2957    O    -3.72496   -2.33332   0.15238   
 O2958    O    -3.72502   -2.66667   0.15239   
 Mg2959   Mg   -3.71870   -2.00001   0.07619   
 Mg2960   Mg   -3.71868   -2.33331   0.07621   
 Mg2961   Mg   -3.71869   -2.66661   0.07619   
 Mg2962   Mg   -3.71872   -2.00002   0.22858   
 Mg2963   Mg   -3.71869   -2.33332   0.22858   
 Mg2964   Mg   -3.71872   -2.66662   0.22858   
 Mg2965   Mg   -3.71868   -2.16666   0.00001   
 Mg2966   Mg   -3.71868   -2.49997   0.00001   
 Mg2967   Mg   -3.71873   -2.83332   0.00000   
 Mg2968   Mg   -3.71869   -2.16667   0.15239   
 Mg2969   Mg   -3.71869   -2.49996   0.15239   
 Mg2970   Mg   -3.71873   -2.83330   0.15238   
 O2971    O    -3.72500   -2.16666   0.07619   
 O2972    O    -3.72500   -2.50000   0.07619   
 O2973    O    -3.72500   -2.83333   0.07620   
 O2974    O    -3.72504   -2.16665   0.22857   
 O2975    O    -3.72503   -2.49998   0.22857   
 O2976    O    -3.72485   -2.83334   0.22858   
 O2977    O    -3.49369   -2.16667   0.00001   
 O2978    O    -3.49369   -2.49997   0.00001   
 O2979    O    -3.49371   -2.83332   0.00001   
 O2980    O    -3.49371   -2.16667   0.15238   
 O2981    O    -3.49372   -2.49998   0.15238   
 O2982    O    -3.49373   -2.83332   0.15238   
 O2983    O    -3.49368   -2.00004   0.07619   
 O2984    O    -3.49370   -2.33332   0.07620   
 O2985    O    -3.49368   -2.66660   0.07620   
 O2986    O    -3.49370   -2.00006   0.22858   
 O2987    O    -3.49370   -2.33332   0.22858   
 O2988    O    -3.49370   -2.66658   0.22858   
 Mg2989   Mg   -3.49370   -2.16664   0.07620   
 Mg2990   Mg   -3.49369   -2.50000   0.07619   
 Mg2991   Mg   -3.49377   -2.83332   0.07620   
 Mg2992   Mg   -3.49369   -2.16664   0.22858   
 Mg2993   Mg   -3.49367   -2.50000   0.22858   
 Mg2994   Mg   -3.49371   -2.83332   0.22857   
 Mg2995   Mg   -3.49369   -2.99994   0.00001   
 Mg2996   Mg   -3.49368   -2.33332   0.00001   
 Mg2997   Mg   -3.49369   -2.66671   0.00001   
 Mg2998   Mg   -3.49374   -2.99993   0.15239   
 Mg2999   Mg   -3.49367   -2.33332   0.15239   
 Mg3000   Mg   -3.49373   -2.66671   0.15239   
 O3001    O    -3.26240   -2.16666   0.07620   
 O3002    O    -3.26240   -2.49997   0.07620   
 O3003    O    -3.26240   -2.83332   0.07619   
 O3004    O    -3.26237   -2.16667   0.22858   
 O3005    O    -3.26237   -2.49998   0.22858   
 O3006    O    -3.26259   -2.83331   0.22858   
 O3007    O    -3.26238   -2.99997   0.00001   
 O3008    O    -3.26244   -2.33332   0.00001   
 O3009    O    -3.26238   -2.66667   0.00001   
 O3010    O    -3.26241   -2.99998   0.15239   
 O3011    O    -3.26241   -2.33332   0.15239   
 O3012    O    -3.26240   -2.66666   0.15239   
 Mg3013   Mg   -3.26870   -2.00002   0.07619   
 Mg3014   Mg   -3.26869   -2.33333   0.07620   
 Mg3015   Mg   -3.26870   -2.66664   0.07619   
 Mg3016   Mg   -3.26869   -2.00001   0.22858   
 Mg3017   Mg   -3.26868   -2.33332   0.22857   
 Mg3018   Mg   -3.26868   -2.66663   0.22858   
 Mg3019   Mg   -3.26869   -2.16667   0.00001   
 Mg3020   Mg   -3.26869   -2.49999   0.00001   
 Mg3021   Mg   -3.26869   -2.83333   0.00001   
 Mg3022   Mg   -3.26871   -2.16667   0.15238   
 Mg3023   Mg   -3.26870   -2.49999   0.15238   
 Mg3024   Mg   -3.26866   -2.83333   0.15237   
 O3025    O    2.27501    -3.99998   0.00001   
 O3026    O    2.27507    -3.33333   0.00001   
 O3027    O    2.27501    -3.66667   0.00001   
 O3028    O    2.27497    -3.99998   0.15238   
 O3029    O    2.27504    -3.33332   0.15238   
 O3030    O    2.27498    -3.66667   0.15239   
 Mg3031   Mg   2.28130    -3.00001   0.07619   
 Mg3032   Mg   2.28132    -3.33331   0.07621   
 Mg3033   Mg   2.28131    -3.66661   0.07619   
 Mg3034   Mg   2.28128    -3.00002   0.22858   
 Mg3035   Mg   2.28131    -3.33332   0.22858   
 Mg3036   Mg   2.28128    -3.66662   0.22858   
 Mg3037   Mg   2.28132    -3.16666   0.00001   
 Mg3038   Mg   2.28132    -3.49997   0.00001   
 Mg3039   Mg   2.28127    -3.83332   0.00000   
 Mg3040   Mg   2.28131    -3.16667   0.15239   
 Mg3041   Mg   2.28131    -3.49996   0.15239   
 Mg3042   Mg   2.28127    -3.83330   0.15238   
 O3043    O    2.27500    -3.16666   0.07619   
 O3044    O    2.27500    -3.50000   0.07619   
 O3045    O    2.27500    -3.83333   0.07620   
 O3046    O    2.27496    -3.16665   0.22857   
 O3047    O    2.27497    -3.49998   0.22857   
 O3048    O    2.27515    -3.83334   0.22858   
 O3049    O    2.50631    -3.16667   0.00001   
 O3050    O    2.50631    -3.49997   0.00001   
 O3051    O    2.50629    -3.83332   0.00001   
 O3052    O    2.50629    -3.16667   0.15238   
 O3053    O    2.50628    -3.49998   0.15238   
 O3054    O    2.50627    -3.83332   0.15238   
 O3055    O    2.50632    -3.00004   0.07619   
 O3056    O    2.50630    -3.33332   0.07620   
 O3057    O    2.50632    -3.66660   0.07620   
 O3058    O    2.50630    -3.00006   0.22858   
 O3059    O    2.50630    -3.33332   0.22858   
 O3060    O    2.50630    -3.66658   0.22858   
 Mg3061   Mg   2.50630    -3.16664   0.07620   
 Mg3062   Mg   2.50631    -3.50000   0.07619   
 Mg3063   Mg   2.50623    -3.83332   0.07620   
 Mg3064   Mg   2.50631    -3.16664   0.22858   
 Mg3065   Mg   2.50633    -3.50000   0.22858   
 Mg3066   Mg   2.50629    -3.83332   0.22857   
 Mg3067   Mg   2.50631    -3.99994   0.00001   
 Mg3068   Mg   2.50632    -3.33332   0.00001   
 Mg3069   Mg   2.50631    -3.66671   0.00001   
 Mg3070   Mg   2.50626    -3.99993   0.15239   
 Mg3071   Mg   2.50633    -3.33332   0.15239   
 Mg3072   Mg   2.50627    -3.66671   0.15239   
 O3073    O    2.73760    -3.16666   0.07620   
 O3074    O    2.73760    -3.49997   0.07620   
 O3075    O    2.73760    -3.83332   0.07619   
 O3076    O    2.73763    -3.16667   0.22858   
 O3077    O    2.73763    -3.49998   0.22858   
 O3078    O    2.73741    -3.83331   0.22858   
 O3079    O    2.73762    -3.99997   0.00001   
 O3080    O    2.73756    -3.33332   0.00001   
 O3081    O    2.73762    -3.66667   0.00001   
 O3082    O    2.73759    -3.99998   0.15239   
 O3083    O    2.73759    -3.33332   0.15239   
 O3084    O    2.73760    -3.66666   0.15239   
 Mg3085   Mg   2.73130    -3.00002   0.07619   
 Mg3086   Mg   2.73131    -3.33333   0.07620   
 Mg3087   Mg   2.73130    -3.66664   0.07619   
 Mg3088   Mg   2.73131    -3.00001   0.22858   
 Mg3089   Mg   2.73132    -3.33332   0.22857   
 Mg3090   Mg   2.73132    -3.66663   0.22858   
 Mg3091   Mg   2.73131    -3.16667   0.00001   
 Mg3092   Mg   2.73131    -3.49999   0.00001   
 Mg3093   Mg   2.73131    -3.83333   0.00001   
 Mg3094   Mg   2.73129    -3.16667   0.15238   
 Mg3095   Mg   2.73130    -3.49999   0.15238   
 Mg3096   Mg   2.73134    -3.83333   0.15237   
 O3097    O    1.27501    -3.99998   0.00001   
 O3098    O    1.27507    -3.33333   0.00001   
 O3099    O    1.27501    -3.66667   0.00001   
 O3100    O    1.27497    -3.99998   0.15238   
 O3101    O    1.27504    -3.33332   0.15238   
 O3102    O    1.27498    -3.66667   0.15239   
 Mg3103   Mg   1.28130    -3.00001   0.07619   
 Mg3104   Mg   1.28132    -3.33331   0.07621   
 Mg3105   Mg   1.28131    -3.66661   0.07619   
 Mg3106   Mg   1.28128    -3.00002   0.22858   
 Mg3107   Mg   1.28131    -3.33332   0.22858   
 Mg3108   Mg   1.28128    -3.66662   0.22858   
 Mg3109   Mg   1.28132    -3.16666   0.00001   
 Mg3110   Mg   1.28132    -3.49997   0.00001   
 Mg3111   Mg   1.28127    -3.83332   0.00000   
 Mg3112   Mg   1.28131    -3.16667   0.15239   
 Mg3113   Mg   1.28131    -3.49996   0.15239   
 Mg3114   Mg   1.28127    -3.83330   0.15238   
 O3115    O    1.27500    -3.16666   0.07619   
 O3116    O    1.27500    -3.50000   0.07619   
 O3117    O    1.27500    -3.83333   0.07620   
 O3118    O    1.27496    -3.16665   0.22857   
 O3119    O    1.27497    -3.49998   0.22857   
 O3120    O    1.27515    -3.83334   0.22858   
 O3121    O    1.50631    -3.16667   0.00001   
 O3122    O    1.50631    -3.49997   0.00001   
 O3123    O    1.50629    -3.83332   0.00001   
 O3124    O    1.50629    -3.16667   0.15238   
 O3125    O    1.50628    -3.49998   0.15238   
 O3126    O    1.50627    -3.83332   0.15238   
 O3127    O    1.50632    -3.00004   0.07619   
 O3128    O    1.50630    -3.33332   0.07620   
 O3129    O    1.50632    -3.66660   0.07620   
 O3130    O    1.50630    -3.00006   0.22858   
 O3131    O    1.50630    -3.33332   0.22858   
 O3132    O    1.50630    -3.66658   0.22858   
 Mg3133   Mg   1.50630    -3.16664   0.07620   
 Mg3134   Mg   1.50631    -3.50000   0.07619   
 Mg3135   Mg   1.50623    -3.83332   0.07620   
 Mg3136   Mg   1.50631    -3.16664   0.22858   
 Mg3137   Mg   1.50633    -3.50000   0.22858   
 Mg3138   Mg   1.50629    -3.83332   0.22857   
 Mg3139   Mg   1.50631    -3.99994   0.00001   
 Mg3140   Mg   1.50632    -3.33332   0.00001   
 Mg3141   Mg   1.50631    -3.66671   0.00001   
 Mg3142   Mg   1.50626    -3.99993   0.15239   
 Mg3143   Mg   1.50633    -3.33332   0.15239   
 Mg3144   Mg   1.50627    -3.66671   0.15239   
 O3145    O    1.73760    -3.16666   0.07620   
 O3146    O    1.73760    -3.49997   0.07620   
 O3147    O    1.73760    -3.83332   0.07619   
 O3148    O    1.73763    -3.16667   0.22858   
 O3149    O    1.73763    -3.49998   0.22858   
 O3150    O    1.73741    -3.83331   0.22858   
 O3151    O    1.73762    -3.99997   0.00001   
 O3152    O    1.73756    -3.33332   0.00001   
 O3153    O    1.73762    -3.66667   0.00001   
 O3154    O    1.73759    -3.99998   0.15239   
 O3155    O    1.73759    -3.33332   0.15239   
 O3156    O    1.73760    -3.66666   0.15239   
 Mg3157   Mg   1.73130    -3.00002   0.07619   
 Mg3158   Mg   1.73131    -3.33333   0.07620   
 Mg3159   Mg   1.73130    -3.66664   0.07619   
 Mg3160   Mg   1.73131    -3.00001   0.22858   
 Mg3161   Mg   1.73132    -3.33332   0.22857   
 Mg3162   Mg   1.73132    -3.66663   0.22858   
 Mg3163   Mg   1.73131    -3.16667   0.00001   
 Mg3164   Mg   1.73131    -3.49999   0.00001   
 Mg3165   Mg   1.73131    -3.83333   0.00001   
 Mg3166   Mg   1.73129    -3.16667   0.15238   
 Mg3167   Mg   1.73130    -3.49999   0.15238   
 Mg3168   Mg   1.73134    -3.83333   0.15237   
 O3169    O    0.27501    -3.99998   0.00001   
 O3170    O    0.27507    -3.33333   0.00001   
 O3171    O    0.27501    -3.66667   0.00001   
 O3172    O    0.27497    -3.99998   0.15238   
 O3173    O    0.27504    -3.33332   0.15238   
 O3174    O    0.27498    -3.66667   0.15239   
 Mg3175   Mg   0.28130    -3.00001   0.07619   
 Mg3176   Mg   0.28132    -3.33331   0.07621   
 Mg3177   Mg   0.28131    -3.66661   0.07619   
 Mg3178   Mg   0.28128    -3.00002   0.22858   
 Mg3179   Mg   0.28131    -3.33332   0.22858   
 Mg3180   Mg   0.28128    -3.66662   0.22858   
 Mg3181   Mg   0.28132    -3.16666   0.00001   
 Mg3182   Mg   0.28132    -3.49997   0.00001   
 Mg3183   Mg   0.28127    -3.83332   0.00000   
 Mg3184   Mg   0.28131    -3.16667   0.15239   
 Mg3185   Mg   0.28131    -3.49996   0.15239   
 Mg3186   Mg   0.28127    -3.83330   0.15238   
 O3187    O    0.27500    -3.16666   0.07619   
 O3188    O    0.27500    -3.50000   0.07619   
 O3189    O    0.27500    -3.83333   0.07620   
 O3190    O    0.27496    -3.16665   0.22857   
 O3191    O    0.27497    -3.49998   0.22857   
 O3192    O    0.27515    -3.83334   0.22858   
 O3193    O    0.50631    -3.16667   0.00001   
 O3194    O    0.50631    -3.49997   0.00001   
 O3195    O    0.50629    -3.83332   0.00001   
 O3196    O    0.50629    -3.16667   0.15238   
 O3197    O    0.50628    -3.49998   0.15238   
 O3198    O    0.50627    -3.83332   0.15238   
 O3199    O    0.50632    -3.00004   0.07619   
 O3200    O    0.50630    -3.33332   0.07620   
 O3201    O    0.50632    -3.66660   0.07620   
 O3202    O    0.50630    -3.00006   0.22858   
 O3203    O    0.50630    -3.33332   0.22858   
 O3204    O    0.50630    -3.66658   0.22858   
 Mg3205   Mg   0.50630    -3.16664   0.07620   
 Mg3206   Mg   0.50631    -3.50000   0.07619   
 Mg3207   Mg   0.50623    -3.83332   0.07620   
 Mg3208   Mg   0.50631    -3.16664   0.22858   
 Mg3209   Mg   0.50633    -3.50000   0.22858   
 Mg3210   Mg   0.50629    -3.83332   0.22857   
 Mg3211   Mg   0.50631    -3.99994   0.00001   
 Mg3212   Mg   0.50632    -3.33332   0.00001   
 Mg3213   Mg   0.50631    -3.66671   0.00001   
 Mg3214   Mg   0.50626    -3.99993   0.15239   
 Mg3215   Mg   0.50633    -3.33332   0.15239   
 Mg3216   Mg   0.50627    -3.66671   0.15239   
 O3217    O    0.73760    -3.16666   0.07620   
 O3218    O    0.73760    -3.49997   0.07620   
 O3219    O    0.73760    -3.83332   0.07619   
 O3220    O    0.73763    -3.16667   0.22858   
 O3221    O    0.73763    -3.49998   0.22858   
 O3222    O    0.73741    -3.83331   0.22858   
 O3223    O    0.73762    -3.99997   0.00001   
 O3224    O    0.73756    -3.33332   0.00001   
 O3225    O    0.73762    -3.66667   0.00001   
 O3226    O    0.73759    -3.99998   0.15239   
 O3227    O    0.73759    -3.33332   0.15239   
 O3228    O    0.73760    -3.66666   0.15239   
 Mg3229   Mg   0.73130    -3.00002   0.07619   
 Mg3230   Mg   0.73131    -3.33333   0.07620   
 Mg3231   Mg   0.73130    -3.66664   0.07619   
 Mg3232   Mg   0.73131    -3.00001   0.22858   
 Mg3233   Mg   0.73132    -3.33332   0.22857   
 Mg3234   Mg   0.73132    -3.66663   0.22858   
 Mg3235   Mg   0.73131    -3.16667   0.00001   
 Mg3236   Mg   0.73131    -3.49999   0.00001   
 Mg3237   Mg   0.73131    -3.83333   0.00001   
 Mg3238   Mg   0.73129    -3.16667   0.15238   
 Mg3239   Mg   0.73130    -3.49999   0.15238   
 Mg3240   Mg   0.73134    -3.83333   0.15237   
 O3241    O    -0.72499   -3.99998   0.00001   
 O3242    O    -0.72493   -3.33333   0.00001   
 O3243    O    -0.72499   -3.66667   0.00001   
 O3244    O    -0.72503   -3.99998   0.15238   
 O3245    O    -0.72496   -3.33332   0.15238   
 O3246    O    -0.72502   -3.66667   0.15239   
 Mg3247   Mg   -0.71870   -3.00001   0.07619   
 Mg3248   Mg   -0.71868   -3.33331   0.07621   
 Mg3249   Mg   -0.71869   -3.66661   0.07619   
 Mg3250   Mg   -0.71872   -3.00002   0.22858   
 Mg3251   Mg   -0.71869   -3.33332   0.22858   
 Mg3252   Mg   -0.71872   -3.66662   0.22858   
 Mg3253   Mg   -0.71868   -3.16666   0.00001   
 Mg3254   Mg   -0.71868   -3.49997   0.00001   
 Mg3255   Mg   -0.71873   -3.83332   0.00000   
 Mg3256   Mg   -0.71869   -3.16667   0.15239   
 Mg3257   Mg   -0.71869   -3.49996   0.15239   
 Mg3258   Mg   -0.71873   -3.83330   0.15238   
 O3259    O    -0.72500   -3.16666   0.07619   
 O3260    O    -0.72500   -3.50000   0.07619   
 O3261    O    -0.72500   -3.83333   0.07620   
 O3262    O    -0.72504   -3.16665   0.22857   
 O3263    O    -0.72503   -3.49998   0.22857   
 O3264    O    -0.72485   -3.83334   0.22858   
 O3265    O    -0.49369   -3.16667   0.00001   
 O3266    O    -0.49369   -3.49997   0.00001   
 O3267    O    -0.49371   -3.83332   0.00001   
 O3268    O    -0.49371   -3.16667   0.15238   
 O3269    O    -0.49372   -3.49998   0.15238   
 O3270    O    -0.49373   -3.83332   0.15238   
 O3271    O    -0.49368   -3.00004   0.07619   
 O3272    O    -0.49370   -3.33332   0.07620   
 O3273    O    -0.49368   -3.66660   0.07620   
 O3274    O    -0.49370   -3.00006   0.22858   
 O3275    O    -0.49370   -3.33332   0.22858   
 O3276    O    -0.49370   -3.66658   0.22858   
 Mg3277   Mg   -0.49370   -3.16664   0.07620   
 Mg3278   Mg   -0.49369   -3.50000   0.07619   
 Mg3279   Mg   -0.49377   -3.83332   0.07620   
 Mg3280   Mg   -0.49369   -3.16664   0.22858   
 Mg3281   Mg   -0.49367   -3.50000   0.22858   
 Mg3282   Mg   -0.49371   -3.83332   0.22857   
 Mg3283   Mg   -0.49369   -3.99994   0.00001   
 Mg3284   Mg   -0.49368   -3.33332   0.00001   
 Mg3285   Mg   -0.49369   -3.66671   0.00001   
 Mg3286   Mg   -0.49374   -3.99993   0.15239   
 Mg3287   Mg   -0.49367   -3.33332   0.15239   
 Mg3288   Mg   -0.49373   -3.66671   0.15239   
 O3289    O    -0.26240   -3.16666   0.07620   
 O3290    O    -0.26240   -3.49997   0.07620   
 O3291    O    -0.26240   -3.83332   0.07619   
 O3292    O    -0.26237   -3.16667   0.22858   
 O3293    O    -0.26237   -3.49998   0.22858   
 O3294    O    -0.26259   -3.83331   0.22858   
 O3295    O    -0.26238   -3.99997   0.00001   
 O3296    O    -0.26244   -3.33332   0.00001   
 O3297    O    -0.26238   -3.66667   0.00001   
 O3298    O    -0.26241   -3.99998   0.15239   
 O3299    O    -0.26241   -3.33332   0.15239   
 O3300    O    -0.26240   -3.66666   0.15239   
 Mg3301   Mg   -0.26870   -3.00002   0.07619   
 Mg3302   Mg   -0.26869   -3.33333   0.07620   
 Mg3303   Mg   -0.26870   -3.66664   0.07619   
 Mg3304   Mg   -0.26869   -3.00001   0.22858   
 Mg3305   Mg   -0.26868   -3.33332   0.22857   
 Mg3306   Mg   -0.26868   -3.66663   0.22858   
 Mg3307   Mg   -0.26869   -3.16667   0.00001   
 Mg3308   Mg   -0.26869   -3.49999   0.00001   
 Mg3309   Mg   -0.26869   -3.83333   0.00001   
 Mg3310   Mg   -0.26871   -3.16667   0.15238   
 Mg3311   Mg   -0.26870   -3.49999   0.15238   
 Mg3312   Mg   -0.26866   -3.83333   0.15237   
 O3313    O    -1.72499   -3.99998   0.00001   
 O3314    O    -1.72493   -3.33333   0.00001   
 O3315    O    -1.72499   -3.66667   0.00001   
 O3316    O    -1.72503   -3.99998   0.15238   
 O3317    O    -1.72496   -3.33332   0.15238   
 O3318    O    -1.72502   -3.66667   0.15239   
 Mg3319   Mg   -1.71870   -3.00001   0.07619   
 Mg3320   Mg   -1.71868   -3.33331   0.07621   
 Mg3321   Mg   -1.71869   -3.66661   0.07619   
 Mg3322   Mg   -1.71872   -3.00002   0.22858   
 Mg3323   Mg   -1.71869   -3.33332   0.22858   
 Mg3324   Mg   -1.71872   -3.66662   0.22858   
 Mg3325   Mg   -1.71868   -3.16666   0.00001   
 Mg3326   Mg   -1.71868   -3.49997   0.00001   
 Mg3327   Mg   -1.71873   -3.83332   0.00000   
 Mg3328   Mg   -1.71869   -3.16667   0.15239   
 Mg3329   Mg   -1.71869   -3.49996   0.15239   
 Mg3330   Mg   -1.71873   -3.83330   0.15238   
 O3331    O    -1.72500   -3.16666   0.07619   
 O3332    O    -1.72500   -3.50000   0.07619   
 O3333    O    -1.72500   -3.83333   0.07620   
 O3334    O    -1.72504   -3.16665   0.22857   
 O3335    O    -1.72503   -3.49998   0.22857   
 O3336    O    -1.72485   -3.83334   0.22858   
 O3337    O    -1.49369   -3.16667   0.00001   
 O3338    O    -1.49369   -3.49997   0.00001   
 O3339    O    -1.49371   -3.83332   0.00001   
 O3340    O    -1.49371   -3.16667   0.15238   
 O3341    O    -1.49372   -3.49998   0.15238   
 O3342    O    -1.49373   -3.83332   0.15238   
 O3343    O    -1.49368   -3.00004   0.07619   
 O3344    O    -1.49370   -3.33332   0.07620   
 O3345    O    -1.49368   -3.66660   0.07620   
 O3346    O    -1.49370   -3.00006   0.22858   
 O3347    O    -1.49370   -3.33332   0.22858   
 O3348    O    -1.49370   -3.66658   0.22858   
 Mg3349   Mg   -1.49370   -3.16664   0.07620   
 Mg3350   Mg   -1.49369   -3.50000   0.07619   
 Mg3351   Mg   -1.49377   -3.83332   0.07620   
 Mg3352   Mg   -1.49369   -3.16664   0.22858   
 Mg3353   Mg   -1.49367   -3.50000   0.22858   
 Mg3354   Mg   -1.49371   -3.83332   0.22857   
 Mg3355   Mg   -1.49369   -3.99994   0.00001   
 Mg3356   Mg   -1.49368   -3.33332   0.00001   
 Mg3357   Mg   -1.49369   -3.66671   0.00001   
 Mg3358   Mg   -1.49374   -3.99993   0.15239   
 Mg3359   Mg   -1.49367   -3.33332   0.15239   
 Mg3360   Mg   -1.49373   -3.66671   0.15239   
 O3361    O    -1.26240   -3.16666   0.07620   
 O3362    O    -1.26240   -3.49997   0.07620   
 O3363    O    -1.26240   -3.83332   0.07619   
 O3364    O    -1.26237   -3.16667   0.22858   
 O3365    O    -1.26237   -3.49998   0.22858   
 O3366    O    -1.26259   -3.83331   0.22858   
 O3367    O    -1.26238   -3.99997   0.00001   
 O3368    O    -1.26244   -3.33332   0.00001   
 O3369    O    -1.26238   -3.66667   0.00001   
 O3370    O    -1.26241   -3.99998   0.15239   
 O3371    O    -1.26241   -3.33332   0.15239   
 O3372    O    -1.26240   -3.66666   0.15239   
 Mg3373   Mg   -1.26870   -3.00002   0.07619   
 Mg3374   Mg   -1.26869   -3.33333   0.07620   
 Mg3375   Mg   -1.26870   -3.66664   0.07619   
 Mg3376   Mg   -1.26869   -3.00001   0.22858   
 Mg3377   Mg   -1.26868   -3.33332   0.22857   
 Mg3378   Mg   -1.26868   -3.66663   0.22858   
 Mg3379   Mg   -1.26869   -3.16667   0.00001   
 Mg3380   Mg   -1.26869   -3.49999   0.00001   
 Mg3381   Mg   -1.26869   -3.83333   0.00001   
 Mg3382   Mg   -1.26871   -3.16667   0.15238   
 Mg3383   Mg   -1.26870   -3.49999   0.15238   
 Mg3384   Mg   -1.26866   -3.83333   0.15237   
 O3385    O    -2.72499   -3.99998   0.00001   
 O3386    O    -2.72493   -3.33333   0.00001   
 O3387    O    -2.72499   -3.66667   0.00001   
 O3388    O    -2.72503   -3.99998   0.15238   
 O3389    O    -2.72496   -3.33332   0.15238   
 O3390    O    -2.72502   -3.66667   0.15239   
 Mg3391   Mg   -2.71870   -3.00001   0.07619   
 Mg3392   Mg   -2.71868   -3.33331   0.07621   
 Mg3393   Mg   -2.71869   -3.66661   0.07619   
 Mg3394   Mg   -2.71872   -3.00002   0.22858   
 Mg3395   Mg   -2.71869   -3.33332   0.22858   
 Mg3396   Mg   -2.71872   -3.66662   0.22858   
 Mg3397   Mg   -2.71868   -3.16666   0.00001   
 Mg3398   Mg   -2.71868   -3.49997   0.00001   
 Mg3399   Mg   -2.71873   -3.83332   0.00000   
 Mg3400   Mg   -2.71869   -3.16667   0.15239   
 Mg3401   Mg   -2.71869   -3.49996   0.15239   
 Mg3402   Mg   -2.71873   -3.83330   0.15238   
 O3403    O    -2.72500   -3.16666   0.07619   
 O3404    O    -2.72500   -3.50000   0.07619   
 O3405    O    -2.72500   -3.83333   0.07620   
 O3406    O    -2.72504   -3.16665   0.22857   
 O3407    O    -2.72503   -3.49998   0.22857   
 O3408    O    -2.72485   -3.83334   0.22858   
 O3409    O    -2.49369   -3.16667   0.00001   
 O3410    O    -2.49369   -3.49997   0.00001   
 O3411    O    -2.49371   -3.83332   0.00001   
 O3412    O    -2.49371   -3.16667   0.15238   
 O3413    O    -2.49372   -3.49998   0.15238   
 O3414    O    -2.49373   -3.83332   0.15238   
 O3415    O    -2.49368   -3.00004   0.07619   
 O3416    O    -2.49370   -3.33332   0.07620   
 O3417    O    -2.49368   -3.66660   0.07620   
 O3418    O    -2.49370   -3.00006   0.22858   
 O3419    O    -2.49370   -3.33332   0.22858   
 O3420    O    -2.49370   -3.66658   0.22858   
 Mg3421   Mg   -2.49370   -3.16664   0.07620   
 Mg3422   Mg   -2.49369   -3.50000   0.07619   
 Mg3423   Mg   -2.49377   -3.83332   0.07620   
 Mg3424   Mg   -2.49369   -3.16664   0.22858   
 Mg3425   Mg   -2.49367   -3.50000   0.22858   
 Mg3426   Mg   -2.49371   -3.83332   0.22857   
 Mg3427   Mg   -2.49369   -3.99994   0.00001   
 Mg3428   Mg   -2.49368   -3.33332   0.00001   
 Mg3429   Mg   -2.49369   -3.66671   0.00001   
 Mg3430   Mg   -2.49374   -3.99993   0.15239   
 Mg3431   Mg   -2.49367   -3.33332   0.15239   
 Mg3432   Mg   -2.49373   -3.66671   0.15239   
 O3433    O    -2.26240   -3.16666   0.07620   
 O3434    O    -2.26240   -3.49997   0.07620   
 O3435    O    -2.26240   -3.83332   0.07619   
 O3436    O    -2.26237   -3.16667   0.22858   
 O3437    O    -2.26237   -3.49998   0.22858   
 O3438    O    -2.26259   -3.83331   0.22858   
 O3439    O    -2.26238   -3.99997   0.00001   
 O3440    O    -2.26244   -3.33332   0.00001   
 O3441    O    -2.26238   -3.66667   0.00001   
 O3442    O    -2.26241   -3.99998   0.15239   
 O3443    O    -2.26241   -3.33332   0.15239   
 O3444    O    -2.26240   -3.66666   0.15239   
 Mg3445   Mg   -2.26870   -3.00002   0.07619   
 Mg3446   Mg   -2.26869   -3.33333   0.07620   
 Mg3447   Mg   -2.26870   -3.66664   0.07619   
 Mg3448   Mg   -2.26869   -3.00001   0.22858   
 Mg3449   Mg   -2.26868   -3.33332   0.22857   
 Mg3450   Mg   -2.26868   -3.66663   0.22858   
 Mg3451   Mg   -2.26869   -3.16667   0.00001   
 Mg3452   Mg   -2.26869   -3.49999   0.00001   
 Mg3453   Mg   -2.26869   -3.83333   0.00001   
 Mg3454   Mg   -2.26871   -3.16667   0.15238   
 Mg3455   Mg   -2.26870   -3.49999   0.15238   
 Mg3456   Mg   -2.26866   -3.83333   0.15237   
 O3457    O    -3.72499   -3.99998   0.00001   
 O3458    O    -3.72493   -3.33333   0.00001   
 O3459    O    -3.72499   -3.66667   0.00001   
 O3460    O    -3.72503   -3.99998   0.15238   
 O3461    O    -3.72496   -3.33332   0.15238   
 O3462    O    -3.72502   -3.66667   0.15239   
 Mg3463   Mg   -3.71870   -3.00001   0.07619   
 Mg3464   Mg   -3.71868   -3.33331   0.07621   
 Mg3465   Mg   -3.71869   -3.66661   0.07619   
 Mg3466   Mg   -3.71872   -3.00002   0.22858   
 Mg3467   Mg   -3.71869   -3.33332   0.22858   
 Mg3468   Mg   -3.71872   -3.66662   0.22858   
 Mg3469   Mg   -3.71868   -3.16666   0.00001   
 Mg3470   Mg   -3.71868   -3.49997   0.00001   
 Mg3471   Mg   -3.71873   -3.83332   0.00000   
 Mg3472   Mg   -3.71869   -3.16667   0.15239   
 Mg3473   Mg   -3.71869   -3.49996   0.15239   
 Mg3474   Mg   -3.71873   -3.83330   0.15238   
 O3475    O    -3.72500   -3.16666   0.07619   
 O3476    O    -3.72500   -3.50000   0.07619   
 O3477    O    -3.72500   -3.83333   0.07620   
 O3478    O    -3.72504   -3.16665   0.22857   
 O3479    O    -3.72503   -3.49998   0.22857   
 O3480    O    -3.72485   -3.83334   0.22858   
 O3481    O    -3.49369   -3.16667   0.00001   
 O3482    O    -3.49369   -3.49997   0.00001   
 O3483    O    -3.49371   -3.83332   0.00001   
 O3484    O    -3.49371   -3.16667   0.15238   
 O3485    O    -3.49372   -3.49998   0.15238   
 O3486    O    -3.49373   -3.83332   0.15238   
 O3487    O    -3.49368   -3.00004   0.07619   
 O3488    O    -3.49370   -3.33332   0.07620   
 O3489    O    -3.49368   -3.66660   0.07620   
 O3490    O    -3.49370   -3.00006   0.22858   
 O3491    O    -3.49370   -3.33332   0.22858   
 O3492    O    -3.49370   -3.66658   0.22858   
 Mg3493   Mg   -3.49370   -3.16664   0.07620   
 Mg3494   Mg   -3.49369   -3.50000   0.07619   
 Mg3495   Mg   -3.49377   -3.83332   0.07620   
 Mg3496   Mg   -3.49369   -3.16664   0.22858   
 Mg3497   Mg   -3.49367   -3.50000   0.22858   
 Mg3498   Mg   -3.49371   -3.83332   0.22857   
 Mg3499   Mg   -3.49369   -3.99994   0.00001   
 Mg3500   Mg   -3.49368   -3.33332   0.00001   
 Mg3501   Mg   -3.49369   -3.66671   0.00001   
 Mg3502   Mg   -3.49374   -3.99993   0.15239   
 Mg3503   Mg   -3.49367   -3.33332   0.15239   
 Mg3504   Mg   -3.49373   -3.66671   0.15239   
 O3505    O    -3.26240   -3.16666   0.07620   
 O3506    O    -3.26240   -3.49997   0.07620   
 O3507    O    -3.26240   -3.83332   0.07619   
 O3508    O    -3.26237   -3.16667   0.22858   
 O3509    O    -3.26237   -3.49998   0.22858   
 O3510    O    -3.26259   -3.83331   0.22858   
 O3511    O    -3.26238   -3.99997   0.00001   
 O3512    O    -3.26244   -3.33332   0.00001   
 O3513    O    -3.26238   -3.66667   0.00001   
 O3514    O    -3.26241   -3.99998   0.15239   
 O3515    O    -3.26241   -3.33332   0.15239   
 O3516    O    -3.26240   -3.66666   0.15239   
 Mg3517   Mg   -3.26870   -3.00002   0.07619   
 Mg3518   Mg   -3.26869   -3.33333   0.07620   
 Mg3519   Mg   -3.26870   -3.66664   0.07619   
 Mg3520   Mg   -3.26869   -3.00001   0.22858   
 Mg3521   Mg   -3.26868   -3.33332   0.22857   
 Mg3522   Mg   -3.26868   -3.66663   0.22858   
 Mg3523   Mg   -3.26869   -3.16667   0.00001   
 Mg3524   Mg   -3.26869   -3.49999   0.00001   
 Mg3525   Mg   -3.26869   -3.83333   0.00001   
 Mg3526   Mg   -3.26871   -3.16667   0.15238   
 Mg3527   Mg   -3.26870   -3.49999   0.15238   
 Mg3528   Mg   -3.26866   -3.83333   0.15237   
 O3529    O    2.27498    2.00002    0.30477   
 O3530    O    2.27505    2.66668    0.30476   
 O3531    O    2.27498    2.33332    0.30476   
 Mg3532   Mg   2.28131    2.99999    0.38095   
 Mg3533   Mg   2.28132    2.66669    0.38096   
 Mg3534   Mg   2.28131    2.33339    0.38096   
 Mg3535   Mg   2.28132    2.83334    0.30477   
 Mg3536   Mg   2.28132    2.50003    0.30477   
 Mg3537   Mg   2.28126    2.16670    0.30477   
 O3538    O    2.27500    2.83334    0.38095   
 O3539    O    2.27500    2.50000    0.38095   
 O3540    O    2.27501    2.16667    0.38096   
 O3541    O    2.50632    2.83333    0.30477   
 O3542    O    2.50632    2.50002    0.30477   
 O3543    O    2.50628    2.16668    0.30478   
 O3544    O    2.50631    2.99995    0.38096   
 O3545    O    2.50633    2.66668    0.38096   
 O3546    O    2.50631    2.33341    0.38096   
 Mg3547   Mg   2.50632    2.83336    0.38096   
 Mg3548   Mg   2.50632    2.49999    0.38095   
 Mg3549   Mg   2.50630    2.16668    0.38095   
 Mg3550   Mg   2.50630    2.00007    0.30476   
 Mg3551   Mg   2.50630    2.66668    0.30477   
 Mg3552   Mg   2.50630    2.33329    0.30476   
 O3553    O    2.73764    2.83335    0.38096   
 O3554    O    2.73763    2.50002    0.38096   
 O3555    O    2.73758    2.16668    0.38095   
 O3556    O    2.73764    2.00003    0.30476   
 O3557    O    2.73758    2.66668    0.30477   
 O3558    O    2.73763    2.33334    0.30477   
 Mg3559   Mg   2.73133    2.99998    0.38096   
 Mg3560   Mg   2.73132    2.66667    0.38095   
 Mg3561   Mg   2.73133    2.33336    0.38095   
 Mg3562   Mg   2.73131    2.83333    0.30476   
 Mg3563   Mg   2.73131    2.50001    0.30477   
 Mg3564   Mg   2.73131    2.16666    0.30477   
 O3565    O    1.27498    2.00002    0.30477   
 O3566    O    1.27505    2.66668    0.30476   
 O3567    O    1.27498    2.33332    0.30476   
 Mg3568   Mg   1.28131    2.99999    0.38095   
 Mg3569   Mg   1.28132    2.66669    0.38096   
 Mg3570   Mg   1.28131    2.33339    0.38096   
 Mg3571   Mg   1.28132    2.83334    0.30477   
 Mg3572   Mg   1.28132    2.50003    0.30477   
 Mg3573   Mg   1.28126    2.16670    0.30477   
 O3574    O    1.27500    2.83334    0.38095   
 O3575    O    1.27500    2.50000    0.38095   
 O3576    O    1.27501    2.16667    0.38096   
 O3577    O    1.50632    2.83333    0.30477   
 O3578    O    1.50632    2.50002    0.30477   
 O3579    O    1.50628    2.16668    0.30478   
 O3580    O    1.50631    2.99995    0.38096   
 O3581    O    1.50633    2.66668    0.38096   
 O3582    O    1.50631    2.33341    0.38096   
 Mg3583   Mg   1.50632    2.83336    0.38096   
 Mg3584   Mg   1.50632    2.49999    0.38095   
 Mg3585   Mg   1.50630    2.16668    0.38095   
 Mg3586   Mg   1.50630    2.00007    0.30476   
 Mg3587   Mg   1.50630    2.66668    0.30477   
 Mg3588   Mg   1.50630    2.33329    0.30476   
 O3589    O    1.73764    2.83335    0.38096   
 O3590    O    1.73763    2.50002    0.38096   
 O3591    O    1.73758    2.16668    0.38095   
 O3592    O    1.73764    2.00003    0.30476   
 O3593    O    1.73758    2.66668    0.30477   
 O3594    O    1.73763    2.33334    0.30477   
 Mg3595   Mg   1.73133    2.99998    0.38096   
 Mg3596   Mg   1.73132    2.66667    0.38095   
 Mg3597   Mg   1.73133    2.33336    0.38095   
 Mg3598   Mg   1.73131    2.83333    0.30476   
 Mg3599   Mg   1.73131    2.50001    0.30477   
 Mg3600   Mg   1.73131    2.16666    0.30477   
 O3601    O    0.27498    2.00002    0.30477   
 O3602    O    0.27505    2.66668    0.30476   
 O3603    O    0.27498    2.33332    0.30476   
 Mg3604   Mg   0.28131    2.99999    0.38095   
 Mg3605   Mg   0.28132    2.66669    0.38096   
 Mg3606   Mg   0.28131    2.33339    0.38096   
 Mg3607   Mg   0.28132    2.83334    0.30477   
 Mg3608   Mg   0.28132    2.50003    0.30477   
 Mg3609   Mg   0.28126    2.16670    0.30477   
 O3610    O    0.27500    2.83334    0.38095   
 O3611    O    0.27500    2.50000    0.38095   
 O3612    O    0.27501    2.16667    0.38096   
 O3613    O    0.50632    2.83333    0.30477   
 O3614    O    0.50632    2.50002    0.30477   
 O3615    O    0.50628    2.16668    0.30478   
 O3616    O    0.50631    2.99995    0.38096   
 O3617    O    0.50633    2.66668    0.38096   
 O3618    O    0.50631    2.33341    0.38096   
 Mg3619   Mg   0.50632    2.83336    0.38096   
 Mg3620   Mg   0.50632    2.49999    0.38095   
 Mg3621   Mg   0.50630    2.16668    0.38095   
 Mg3622   Mg   0.50630    2.00007    0.30476   
 Mg3623   Mg   0.50630    2.66668    0.30477   
 Mg3624   Mg   0.50630    2.33329    0.30476   
 O3625    O    0.73764    2.83335    0.38096   
 O3626    O    0.73763    2.50002    0.38096   
 O3627    O    0.73758    2.16668    0.38095   
 O3628    O    0.73764    2.00003    0.30476   
 O3629    O    0.73758    2.66668    0.30477   
 O3630    O    0.73763    2.33334    0.30477   
 Mg3631   Mg   0.73133    2.99998    0.38096   
 Mg3632   Mg   0.73132    2.66667    0.38095   
 Mg3633   Mg   0.73133    2.33336    0.38095   
 Mg3634   Mg   0.73131    2.83333    0.30476   
 Mg3635   Mg   0.73131    2.50001    0.30477   
 Mg3636   Mg   0.73131    2.16666    0.30477   
 O3637    O    -0.72502   2.00002    0.30477   
 O3638    O    -0.72495   2.66668    0.30476   
 O3639    O    -0.72502   2.33332    0.30476   
 Mg3640   Mg   -0.71869   2.99999    0.38095   
 Mg3641   Mg   -0.71868   2.66669    0.38096   
 Mg3642   Mg   -0.71869   2.33339    0.38096   
 Mg3643   Mg   -0.71868   2.83334    0.30477   
 Mg3644   Mg   -0.71868   2.50003    0.30477   
 Mg3645   Mg   -0.71874   2.16670    0.30477   
 O3646    O    -0.72500   2.83334    0.38095   
 O3647    O    -0.72500   2.50000    0.38095   
 O3648    O    -0.72499   2.16667    0.38096   
 O3649    O    -0.49368   2.83333    0.30477   
 O3650    O    -0.49368   2.50002    0.30477   
 O3651    O    -0.49372   2.16668    0.30478   
 O3652    O    -0.49369   2.99995    0.38096   
 O3653    O    -0.49367   2.66668    0.38096   
 O3654    O    -0.49369   2.33341    0.38096   
 Mg3655   Mg   -0.49368   2.83336    0.38096   
 Mg3656   Mg   -0.49368   2.49999    0.38095   
 Mg3657   Mg   -0.49370   2.16668    0.38095   
 Mg3658   Mg   -0.49370   2.00007    0.30476   
 Mg3659   Mg   -0.49370   2.66668    0.30477   
 Mg3660   Mg   -0.49370   2.33329    0.30476   
 O3661    O    -0.26236   2.83335    0.38096   
 O3662    O    -0.26237   2.50002    0.38096   
 O3663    O    -0.26242   2.16668    0.38095   
 O3664    O    -0.26236   2.00003    0.30476   
 O3665    O    -0.26242   2.66668    0.30477   
 O3666    O    -0.26237   2.33334    0.30477   
 Mg3667   Mg   -0.26867   2.99998    0.38096   
 Mg3668   Mg   -0.26868   2.66667    0.38095   
 Mg3669   Mg   -0.26867   2.33336    0.38095   
 Mg3670   Mg   -0.26869   2.83333    0.30476   
 Mg3671   Mg   -0.26869   2.50001    0.30477   
 Mg3672   Mg   -0.26869   2.16666    0.30477   
 O3673    O    -1.72502   2.00002    0.30477   
 O3674    O    -1.72495   2.66668    0.30476   
 O3675    O    -1.72502   2.33332    0.30476   
 Mg3676   Mg   -1.71869   2.99999    0.38095   
 Mg3677   Mg   -1.71868   2.66669    0.38096   
 Mg3678   Mg   -1.71869   2.33339    0.38096   
 Mg3679   Mg   -1.71868   2.83334    0.30477   
 Mg3680   Mg   -1.71868   2.50003    0.30477   
 Mg3681   Mg   -1.71874   2.16670    0.30477   
 O3682    O    -1.72500   2.83334    0.38095   
 O3683    O    -1.72500   2.50000    0.38095   
 O3684    O    -1.72499   2.16667    0.38096   
 O3685    O    -1.49368   2.83333    0.30477   
 O3686    O    -1.49368   2.50002    0.30477   
 O3687    O    -1.49372   2.16668    0.30478   
 O3688    O    -1.49369   2.99995    0.38096   
 O3689    O    -1.49367   2.66668    0.38096   
 O3690    O    -1.49369   2.33341    0.38096   
 Mg3691   Mg   -1.49368   2.83336    0.38096   
 Mg3692   Mg   -1.49368   2.49999    0.38095   
 Mg3693   Mg   -1.49370   2.16668    0.38095   
 Mg3694   Mg   -1.49370   2.00007    0.30476   
 Mg3695   Mg   -1.49370   2.66668    0.30477   
 Mg3696   Mg   -1.49370   2.33329    0.30476   
 O3697    O    -1.26236   2.83335    0.38096   
 O3698    O    -1.26237   2.50002    0.38096   
 O3699    O    -1.26242   2.16668    0.38095   
 O3700    O    -1.26236   2.00003    0.30476   
 O3701    O    -1.26242   2.66668    0.30477   
 O3702    O    -1.26237   2.33334    0.30477   
 Mg3703   Mg   -1.26867   2.99998    0.38096   
 Mg3704   Mg   -1.26868   2.66667    0.38095   
 Mg3705   Mg   -1.26867   2.33336    0.38095   
 Mg3706   Mg   -1.26869   2.83333    0.30476   
 Mg3707   Mg   -1.26869   2.50001    0.30477   
 Mg3708   Mg   -1.26869   2.16666    0.30477   
 O3709    O    -2.72502   2.00002    0.30477   
 O3710    O    -2.72495   2.66668    0.30476   
 O3711    O    -2.72502   2.33332    0.30476   
 Mg3712   Mg   -2.71869   2.99999    0.38095   
 Mg3713   Mg   -2.71868   2.66669    0.38096   
 Mg3714   Mg   -2.71869   2.33339    0.38096   
 Mg3715   Mg   -2.71868   2.83334    0.30477   
 Mg3716   Mg   -2.71868   2.50003    0.30477   
 Mg3717   Mg   -2.71874   2.16670    0.30477   
 O3718    O    -2.72500   2.83334    0.38095   
 O3719    O    -2.72500   2.50000    0.38095   
 O3720    O    -2.72499   2.16667    0.38096   
 O3721    O    -2.49368   2.83333    0.30477   
 O3722    O    -2.49368   2.50002    0.30477   
 O3723    O    -2.49372   2.16668    0.30478   
 O3724    O    -2.49369   2.99995    0.38096   
 O3725    O    -2.49367   2.66668    0.38096   
 O3726    O    -2.49369   2.33341    0.38096   
 Mg3727   Mg   -2.49368   2.83336    0.38096   
 Mg3728   Mg   -2.49368   2.49999    0.38095   
 Mg3729   Mg   -2.49370   2.16668    0.38095   
 Mg3730   Mg   -2.49370   2.00007    0.30476   
 Mg3731   Mg   -2.49370   2.66668    0.30477   
 Mg3732   Mg   -2.49370   2.33329    0.30476   
 O3733    O    -2.26236   2.83335    0.38096   
 O3734    O    -2.26237   2.50002    0.38096   
 O3735    O    -2.26242   2.16668    0.38095   
 O3736    O    -2.26236   2.00003    0.30476   
 O3737    O    -2.26242   2.66668    0.30477   
 O3738    O    -2.26237   2.33334    0.30477   
 Mg3739   Mg   -2.26867   2.99998    0.38096   
 Mg3740   Mg   -2.26868   2.66667    0.38095   
 Mg3741   Mg   -2.26867   2.33336    0.38095   
 Mg3742   Mg   -2.26869   2.83333    0.30476   
 Mg3743   Mg   -2.26869   2.50001    0.30477   
 Mg3744   Mg   -2.26869   2.16666    0.30477   
 O3745    O    -3.72502   2.00002    0.30477   
 O3746    O    -3.72495   2.66668    0.30476   
 O3747    O    -3.72502   2.33332    0.30476   
 Mg3748   Mg   -3.71869   2.99999    0.38095   
 Mg3749   Mg   -3.71868   2.66669    0.38096   
 Mg3750   Mg   -3.71869   2.33339    0.38096   
 Mg3751   Mg   -3.71868   2.83334    0.30477   
 Mg3752   Mg   -3.71868   2.50003    0.30477   
 Mg3753   Mg   -3.71874   2.16670    0.30477   
 O3754    O    -3.72500   2.83334    0.38095   
 O3755    O    -3.72500   2.50000    0.38095   
 O3756    O    -3.72499   2.16667    0.38096   
 O3757    O    -3.49368   2.83333    0.30477   
 O3758    O    -3.49368   2.50002    0.30477   
 O3759    O    -3.49372   2.16668    0.30478   
 O3760    O    -3.49369   2.99995    0.38096   
 O3761    O    -3.49367   2.66668    0.38096   
 O3762    O    -3.49369   2.33341    0.38096   
 Mg3763   Mg   -3.49368   2.83336    0.38096   
 Mg3764   Mg   -3.49368   2.49999    0.38095   
 Mg3765   Mg   -3.49370   2.16668    0.38095   
 Mg3766   Mg   -3.49370   2.00007    0.30476   
 Mg3767   Mg   -3.49370   2.66668    0.30477   
 Mg3768   Mg   -3.49370   2.33329    0.30476   
 O3769    O    -3.26236   2.83335    0.38096   
 O3770    O    -3.26237   2.50002    0.38096   
 O3771    O    -3.26242   2.16668    0.38095   
 O3772    O    -3.26236   2.00003    0.30476   
 O3773    O    -3.26242   2.66668    0.30477   
 O3774    O    -3.26237   2.33334    0.30477   
 Mg3775   Mg   -3.26867   2.99998    0.38096   
 Mg3776   Mg   -3.26868   2.66667    0.38095   
 Mg3777   Mg   -3.26867   2.33336    0.38095   
 Mg3778   Mg   -3.26869   2.83333    0.30476   
 Mg3779   Mg   -3.26869   2.50001    0.30477   
 Mg3780   Mg   -3.26869   2.16666    0.30477   
 O3781    O    2.27498    1.00002    0.30477   
 O3782    O    2.27505    1.66668    0.30476   
 O3783    O    2.27498    1.33332    0.30476   
 Mg3784   Mg   2.28131    1.99999    0.38095   
 Mg3785   Mg   2.28132    1.66669    0.38096   
 Mg3786   Mg   2.28131    1.33339    0.38096   
 Mg3787   Mg   2.28132    1.83334    0.30477   
 Mg3788   Mg   2.28132    1.50003    0.30477   
 Mg3789   Mg   2.28126    1.16670    0.30477   
 O3790    O    2.27500    1.83334    0.38095   
 O3791    O    2.27500    1.50000    0.38095   
 O3792    O    2.27501    1.16667    0.38096   
 O3793    O    2.50632    1.83333    0.30477   
 O3794    O    2.50632    1.50002    0.30477   
 O3795    O    2.50628    1.16668    0.30478   
 O3796    O    2.50631    1.99995    0.38096   
 O3797    O    2.50633    1.66668    0.38096   
 O3798    O    2.50631    1.33341    0.38096   
 Mg3799   Mg   2.50632    1.83336    0.38096   
 Mg3800   Mg   2.50632    1.49999    0.38095   
 Mg3801   Mg   2.50630    1.16668    0.38095   
 Mg3802   Mg   2.50630    1.00007    0.30476   
 Mg3803   Mg   2.50630    1.66668    0.30477   
 Mg3804   Mg   2.50630    1.33329    0.30476   
 O3805    O    2.73764    1.83335    0.38096   
 O3806    O    2.73763    1.50002    0.38096   
 O3807    O    2.73758    1.16668    0.38095   
 O3808    O    2.73764    1.00003    0.30476   
 O3809    O    2.73758    1.66668    0.30477   
 O3810    O    2.73763    1.33334    0.30477   
 Mg3811   Mg   2.73133    1.99998    0.38096   
 Mg3812   Mg   2.73132    1.66667    0.38095   
 Mg3813   Mg   2.73133    1.33336    0.38095   
 Mg3814   Mg   2.73131    1.83333    0.30476   
 Mg3815   Mg   2.73131    1.50001    0.30477   
 Mg3816   Mg   2.73131    1.16666    0.30477   
 O3817    O    1.27498    1.00002    0.30477   
 O3818    O    1.27505    1.66668    0.30476   
 O3819    O    1.27498    1.33332    0.30476   
 Mg3820   Mg   1.28131    1.99999    0.38095   
 Mg3821   Mg   1.28132    1.66669    0.38096   
 Mg3822   Mg   1.28131    1.33339    0.38096   
 Mg3823   Mg   1.28132    1.83334    0.30477   
 Mg3824   Mg   1.28132    1.50003    0.30477   
 Mg3825   Mg   1.28126    1.16670    0.30477   
 O3826    O    1.27500    1.83334    0.38095   
 O3827    O    1.27500    1.50000    0.38095   
 O3828    O    1.27501    1.16667    0.38096   
 O3829    O    1.50632    1.83333    0.30477   
 O3830    O    1.50632    1.50002    0.30477   
 O3831    O    1.50628    1.16668    0.30478   
 O3832    O    1.50631    1.99995    0.38096   
 O3833    O    1.50633    1.66668    0.38096   
 O3834    O    1.50631    1.33341    0.38096   
 Mg3835   Mg   1.50632    1.83336    0.38096   
 Mg3836   Mg   1.50632    1.49999    0.38095   
 Mg3837   Mg   1.50630    1.16668    0.38095   
 Mg3838   Mg   1.50630    1.00007    0.30476   
 Mg3839   Mg   1.50630    1.66668    0.30477   
 Mg3840   Mg   1.50630    1.33329    0.30476   
 O3841    O    1.73764    1.83335    0.38096   
 O3842    O    1.73763    1.50002    0.38096   
 O3843    O    1.73758    1.16668    0.38095   
 O3844    O    1.73764    1.00003    0.30476   
 O3845    O    1.73758    1.66668    0.30477   
 O3846    O    1.73763    1.33334    0.30477   
 Mg3847   Mg   1.73133    1.99998    0.38096   
 Mg3848   Mg   1.73132    1.66667    0.38095   
 Mg3849   Mg   1.73133    1.33336    0.38095   
 Mg3850   Mg   1.73131    1.83333    0.30476   
 Mg3851   Mg   1.73131    1.50001    0.30477   
 Mg3852   Mg   1.73131    1.16666    0.30477   
 O3853    O    0.27498    1.00002    0.30477   
 O3854    O    0.27505    1.66668    0.30476   
 O3855    O    0.27498    1.33332    0.30476   
 Mg3856   Mg   0.28131    1.99999    0.38095   
 Mg3857   Mg   0.28132    1.66669    0.38096   
 Mg3858   Mg   0.28131    1.33339    0.38096   
 Mg3859   Mg   0.28132    1.83334    0.30477   
 Mg3860   Mg   0.28132    1.50003    0.30477   
 Mg3861   Mg   0.28126    1.16670    0.30477   
 O3862    O    0.27500    1.83334    0.38095   
 O3863    O    0.27500    1.50000    0.38095   
 O3864    O    0.27501    1.16667    0.38096   
 O3865    O    0.50632    1.83333    0.30477   
 O3866    O    0.50632    1.50002    0.30477   
 O3867    O    0.50628    1.16668    0.30478   
 O3868    O    0.50631    1.99995    0.38096   
 O3869    O    0.50633    1.66668    0.38096   
 O3870    O    0.50631    1.33341    0.38096   
 Mg3871   Mg   0.50632    1.83336    0.38096   
 Mg3872   Mg   0.50632    1.49999    0.38095   
 Mg3873   Mg   0.50630    1.16668    0.38095   
 Mg3874   Mg   0.50630    1.00007    0.30476   
 Mg3875   Mg   0.50630    1.66668    0.30477   
 Mg3876   Mg   0.50630    1.33329    0.30476   
 O3877    O    0.73764    1.83335    0.38096   
 O3878    O    0.73763    1.50002    0.38096   
 O3879    O    0.73758    1.16668    0.38095   
 O3880    O    0.73764    1.00003    0.30476   
 O3881    O    0.73758    1.66668    0.30477   
 O3882    O    0.73763    1.33334    0.30477   
 Mg3883   Mg   0.73133    1.99998    0.38096   
 Mg3884   Mg   0.73132    1.66667    0.38095   
 Mg3885   Mg   0.73133    1.33336    0.38095   
 Mg3886   Mg   0.73131    1.83333    0.30476   
 Mg3887   Mg   0.73131    1.50001    0.30477   
 Mg3888   Mg   0.73131    1.16666    0.30477   
 O3889    O    -0.72502   1.00002    0.30477   
 O3890    O    -0.72495   1.66668    0.30476   
 O3891    O    -0.72502   1.33332    0.30476   
 Mg3892   Mg   -0.71869   1.99999    0.38095   
 Mg3893   Mg   -0.71868   1.66669    0.38096   
 Mg3894   Mg   -0.71869   1.33339    0.38096   
 Mg3895   Mg   -0.71868   1.83334    0.30477   
 Mg3896   Mg   -0.71868   1.50003    0.30477   
 Mg3897   Mg   -0.71874   1.16670    0.30477   
 O3898    O    -0.72500   1.83334    0.38095   
 O3899    O    -0.72500   1.50000    0.38095   
 O3900    O    -0.72499   1.16667    0.38096   
 O3901    O    -0.49368   1.83333    0.30477   
 O3902    O    -0.49368   1.50002    0.30477   
 O3903    O    -0.49372   1.16668    0.30478   
 O3904    O    -0.49369   1.99995    0.38096   
 O3905    O    -0.49367   1.66668    0.38096   
 O3906    O    -0.49369   1.33341    0.38096   
 Mg3907   Mg   -0.49368   1.83336    0.38096   
 Mg3908   Mg   -0.49368   1.49999    0.38095   
 Mg3909   Mg   -0.49370   1.16668    0.38095   
 Mg3910   Mg   -0.49370   1.00007    0.30476   
 Mg3911   Mg   -0.49370   1.66668    0.30477   
 Mg3912   Mg   -0.49370   1.33329    0.30476   
 O3913    O    -0.26236   1.83335    0.38096   
 O3914    O    -0.26237   1.50002    0.38096   
 O3915    O    -0.26242   1.16668    0.38095   
 O3916    O    -0.26236   1.00003    0.30476   
 O3917    O    -0.26242   1.66668    0.30477   
 O3918    O    -0.26237   1.33334    0.30477   
 Mg3919   Mg   -0.26867   1.99998    0.38096   
 Mg3920   Mg   -0.26868   1.66667    0.38095   
 Mg3921   Mg   -0.26867   1.33336    0.38095   
 Mg3922   Mg   -0.26869   1.83333    0.30476   
 Mg3923   Mg   -0.26869   1.50001    0.30477   
 Mg3924   Mg   -0.26869   1.16666    0.30477   
 O3925    O    -1.72502   1.00002    0.30477   
 O3926    O    -1.72495   1.66668    0.30476   
 O3927    O    -1.72502   1.33332    0.30476   
 Mg3928   Mg   -1.71869   1.99999    0.38095   
 Mg3929   Mg   -1.71868   1.66669    0.38096   
 Mg3930   Mg   -1.71869   1.33339    0.38096   
 Mg3931   Mg   -1.71868   1.83334    0.30477   
 Mg3932   Mg   -1.71868   1.50003    0.30477   
 Mg3933   Mg   -1.71874   1.16670    0.30477   
 O3934    O    -1.72500   1.83334    0.38095   
 O3935    O    -1.72500   1.50000    0.38095   
 O3936    O    -1.72499   1.16667    0.38096   
 O3937    O    -1.49368   1.83333    0.30477   
 O3938    O    -1.49368   1.50002    0.30477   
 O3939    O    -1.49372   1.16668    0.30478   
 O3940    O    -1.49369   1.99995    0.38096   
 O3941    O    -1.49367   1.66668    0.38096   
 O3942    O    -1.49369   1.33341    0.38096   
 Mg3943   Mg   -1.49368   1.83336    0.38096   
 Mg3944   Mg   -1.49368   1.49999    0.38095   
 Mg3945   Mg   -1.49370   1.16668    0.38095   
 Mg3946   Mg   -1.49370   1.00007    0.30476   
 Mg3947   Mg   -1.49370   1.66668    0.30477   
 Mg3948   Mg   -1.49370   1.33329    0.30476   
 O3949    O    -1.26236   1.83335    0.38096   
 O3950    O    -1.26237   1.50002    0.38096   
 O3951    O    -1.26242   1.16668    0.38095   
 O3952    O    -1.26236   1.00003    0.30476   
 O3953    O    -1.26242   1.66668    0.30477   
 O3954    O    -1.26237   1.33334    0.30477   
 Mg3955   Mg   -1.26867   1.99998    0.38096   
 Mg3956   Mg   -1.26868   1.66667    0.38095   
 Mg3957   Mg   -1.26867   1.33336    0.38095   
 Mg3958   Mg   -1.26869   1.83333    0.30476   
 Mg3959   Mg   -1.26869   1.50001    0.30477   
 Mg3960   Mg   -1.26869   1.16666    0.30477   
 O3961    O    -2.72502   1.00002    0.30477   
 O3962    O    -2.72495   1.66668    0.30476   
 O3963    O    -2.72502   1.33332    0.30476   
 Mg3964   Mg   -2.71869   1.99999    0.38095   
 Mg3965   Mg   -2.71868   1.66669    0.38096   
 Mg3966   Mg   -2.71869   1.33339    0.38096   
 Mg3967   Mg   -2.71868   1.83334    0.30477   
 Mg3968   Mg   -2.71868   1.50003    0.30477   
 Mg3969   Mg   -2.71874   1.16670    0.30477   
 O3970    O    -2.72500   1.83334    0.38095   
 O3971    O    -2.72500   1.50000    0.38095   
 O3972    O    -2.72499   1.16667    0.38096   
 O3973    O    -2.49368   1.83333    0.30477   
 O3974    O    -2.49368   1.50002    0.30477   
 O3975    O    -2.49372   1.16668    0.30478   
 O3976    O    -2.49369   1.99995    0.38096   
 O3977    O    -2.49367   1.66668    0.38096   
 O3978    O    -2.49369   1.33341    0.38096   
 Mg3979   Mg   -2.49368   1.83336    0.38096   
 Mg3980   Mg   -2.49368   1.49999    0.38095   
 Mg3981   Mg   -2.49370   1.16668    0.38095   
 Mg3982   Mg   -2.49370   1.00007    0.30476   
 Mg3983   Mg   -2.49370   1.66668    0.30477   
 Mg3984   Mg   -2.49370   1.33329    0.30476   
 O3985    O    -2.26236   1.83335    0.38096   
 O3986    O    -2.26237   1.50002    0.38096   
 O3987    O    -2.26242   1.16668    0.38095   
 O3988    O    -2.26236   1.00003    0.30476   
 O3989    O    -2.26242   1.66668    0.30477   
 O3990    O    -2.26237   1.33334    0.30477   
 Mg3991   Mg   -2.26867   1.99998    0.38096   
 Mg3992   Mg   -2.26868   1.66667    0.38095   
 Mg3993   Mg   -2.26867   1.33336    0.38095   
 Mg3994   Mg   -2.26869   1.83333    0.30476   
 Mg3995   Mg   -2.26869   1.50001    0.30477   
 Mg3996   Mg   -2.26869   1.16666    0.30477   
 O3997    O    -3.72502   1.00002    0.30477   
 O3998    O    -3.72495   1.66668    0.30476   
 O3999    O    -3.72502   1.33332    0.30476   
 Mg4000   Mg   -3.71869   1.99999    0.38095   
 Mg4001   Mg   -3.71868   1.66669    0.38096   
 Mg4002   Mg   -3.71869   1.33339    0.38096   
 Mg4003   Mg   -3.71868   1.83334    0.30477   
 Mg4004   Mg   -3.71868   1.50003    0.30477   
 Mg4005   Mg   -3.71874   1.16670    0.30477   
 O4006    O    -3.72500   1.83334    0.38095   
 O4007    O    -3.72500   1.50000    0.38095   
 O4008    O    -3.72499   1.16667    0.38096   
 O4009    O    -3.49368   1.83333    0.30477   
 O4010    O    -3.49368   1.50002    0.30477   
 O4011    O    -3.49372   1.16668    0.30478   
 O4012    O    -3.49369   1.99995    0.38096   
 O4013    O    -3.49367   1.66668    0.38096   
 O4014    O    -3.49369   1.33341    0.38096   
 Mg4015   Mg   -3.49368   1.83336    0.38096   
 Mg4016   Mg   -3.49368   1.49999    0.38095   
 Mg4017   Mg   -3.49370   1.16668    0.38095   
 Mg4018   Mg   -3.49370   1.00007    0.30476   
 Mg4019   Mg   -3.49370   1.66668    0.30477   
 Mg4020   Mg   -3.49370   1.33329    0.30476   
 O4021    O    -3.26236   1.83335    0.38096   
 O4022    O    -3.26237   1.50002    0.38096   
 O4023    O    -3.26242   1.16668    0.38095   
 O4024    O    -3.26236   1.00003    0.30476   
 O4025    O    -3.26242   1.66668    0.30477   
 O4026    O    -3.26237   1.33334    0.30477   
 Mg4027   Mg   -3.26867   1.99998    0.38096   
 Mg4028   Mg   -3.26868   1.66667    0.38095   
 Mg4029   Mg   -3.26867   1.33336    0.38095   
 Mg4030   Mg   -3.26869   1.83333    0.30476   
 Mg4031   Mg   -3.26869   1.50001    0.30477   
 Mg4032   Mg   -3.26869   1.16666    0.30477   
 O4033    O    2.27498    0.00002    0.30477   
 O4034    O    2.27505    0.66668    0.30476   
 O4035    O    2.27498    0.33332    0.30476   
 Mg4036   Mg   2.28131    0.99999    0.38095   
 Mg4037   Mg   2.28132    0.66669    0.38096   
 Mg4038   Mg   2.28131    0.33339    0.38096   
 Mg4039   Mg   2.28132    0.83334    0.30477   
 Mg4040   Mg   2.28132    0.50003    0.30477   
 Mg4041   Mg   2.28126    0.16670    0.30477   
 O4042    O    2.27500    0.83334    0.38095   
 O4043    O    2.27500    0.50000    0.38095   
 O4044    O    2.27501    0.16667    0.38096   
 O4045    O    2.50632    0.83333    0.30477   
 O4046    O    2.50632    0.50002    0.30477   
 O4047    O    2.50628    0.16668    0.30478   
 O4048    O    2.50631    0.99995    0.38096   
 O4049    O    2.50633    0.66668    0.38096   
 O4050    O    2.50631    0.33341    0.38096   
 Mg4051   Mg   2.50632    0.83336    0.38096   
 Mg4052   Mg   2.50632    0.49999    0.38095   
 Mg4053   Mg   2.50630    0.16668    0.38095   
 Mg4054   Mg   2.50630    0.00007    0.30476   
 Mg4055   Mg   2.50630    0.66668    0.30477   
 Mg4056   Mg   2.50630    0.33329    0.30476   
 O4057    O    2.73764    0.83335    0.38096   
 O4058    O    2.73763    0.50002    0.38096   
 O4059    O    2.73758    0.16668    0.38095   
 O4060    O    2.73764    0.00003    0.30476   
 O4061    O    2.73758    0.66668    0.30477   
 O4062    O    2.73763    0.33334    0.30477   
 Mg4063   Mg   2.73133    0.99998    0.38096   
 Mg4064   Mg   2.73132    0.66667    0.38095   
 Mg4065   Mg   2.73133    0.33336    0.38095   
 Mg4066   Mg   2.73131    0.83333    0.30476   
 Mg4067   Mg   2.73131    0.50001    0.30477   
 Mg4068   Mg   2.73131    0.16666    0.30477   
 O4069    O    1.27498    0.00002    0.30477   
 O4070    O    1.27505    0.66668    0.30476   
 O4071    O    1.27498    0.33332    0.30476   
 Mg4072   Mg   1.28131    0.99999    0.38095   
 Mg4073   Mg   1.28132    0.66669    0.38096   
 Mg4074   Mg   1.28131    0.33339    0.38096   
 Mg4075   Mg   1.28132    0.83334    0.30477   
 Mg4076   Mg   1.28132    0.50003    0.30477   
 Mg4077   Mg   1.28126    0.16670    0.30477   
 O4078    O    1.27500    0.83334    0.38095   
 O4079    O    1.27500    0.50000    0.38095   
 O4080    O    1.27501    0.16667    0.38096   
 O4081    O    1.50632    0.83333    0.30477   
 O4082    O    1.50632    0.50002    0.30477   
 O4083    O    1.50628    0.16668    0.30478   
 O4084    O    1.50631    0.99995    0.38096   
 O4085    O    1.50633    0.66668    0.38096   
 O4086    O    1.50631    0.33341    0.38096   
 Mg4087   Mg   1.50632    0.83336    0.38096   
 Mg4088   Mg   1.50632    0.49999    0.38095   
 Mg4089   Mg   1.50630    0.16668    0.38095   
 Mg4090   Mg   1.50630    0.00007    0.30476   
 Mg4091   Mg   1.50630    0.66668    0.30477   
 Mg4092   Mg   1.50630    0.33329    0.30476   
 O4093    O    1.73764    0.83335    0.38096   
 O4094    O    1.73763    0.50002    0.38096   
 O4095    O    1.73758    0.16668    0.38095   
 O4096    O    1.73764    0.00003    0.30476   
 O4097    O    1.73758    0.66668    0.30477   
 O4098    O    1.73763    0.33334    0.30477   
 Mg4099   Mg   1.73133    0.99998    0.38096   
 Mg4100   Mg   1.73132    0.66667    0.38095   
 Mg4101   Mg   1.73133    0.33336    0.38095   
 Mg4102   Mg   1.73131    0.83333    0.30476   
 Mg4103   Mg   1.73131    0.50001    0.30477   
 Mg4104   Mg   1.73131    0.16666    0.30477   
 O4105    O    0.27498    0.00002    0.30477   
 O4106    O    0.27505    0.66668    0.30476   
 O4107    O    0.27498    0.33332    0.30476   
 Mg4108   Mg   0.28131    0.99999    0.38095   
 Mg4109   Mg   0.28132    0.66669    0.38096   
 Mg4110   Mg   0.28131    0.33339    0.38096   
 Mg4111   Mg   0.28132    0.83334    0.30477   
 Mg4112   Mg   0.28132    0.50003    0.30477   
 Mg4113   Mg   0.28126    0.16670    0.30477   
 O4114    O    0.27500    0.83334    0.38095   
 O4115    O    0.27500    0.50000    0.38095   
 O4116    O    0.27501    0.16667    0.38096   
 O4117    O    0.50632    0.83333    0.30477   
 O4118    O    0.50632    0.50002    0.30477   
 O4119    O    0.50628    0.16668    0.30478   
 O4120    O    0.50631    0.99995    0.38096   
 O4121    O    0.50633    0.66668    0.38096   
 O4122    O    0.50631    0.33341    0.38096   
 Mg4123   Mg   0.50632    0.83336    0.38096   
 Mg4124   Mg   0.50632    0.49999    0.38095   
 Mg4125   Mg   0.50630    0.16668    0.38095   
 Mg4126   Mg   0.50630    0.00007    0.30476   
 Mg4127   Mg   0.50630    0.66668    0.30477   
 Mg4128   Mg   0.50630    0.33329    0.30476   
 O4129    O    0.73764    0.83335    0.38096   
 O4130    O    0.73763    0.50002    0.38096   
 O4131    O    0.73758    0.16668    0.38095   
 O4132    O    0.73764    0.00003    0.30476   
 O4133    O    0.73758    0.66668    0.30477   
 O4134    O    0.73763    0.33334    0.30477   
 Mg4135   Mg   0.73133    0.99998    0.38096   
 Mg4136   Mg   0.73132    0.66667    0.38095   
 Mg4137   Mg   0.73133    0.33336    0.38095   
 Mg4138   Mg   0.73131    0.83333    0.30476   
 Mg4139   Mg   0.73131    0.50001    0.30477   
 Mg4140   Mg   0.73131    0.16666    0.30477   
 O4141    O    -0.72502   0.00002    0.30477   
 O4142    O    -0.72495   0.66668    0.30476   
 O4143    O    -0.72502   0.33332    0.30476   
 Mg4144   Mg   -0.71869   0.99999    0.38095   
 Mg4145   Mg   -0.71868   0.66669    0.38096   
 Mg4146   Mg   -0.71869   0.33339    0.38096   
 Mg4147   Mg   -0.71868   0.83334    0.30477   
 Mg4148   Mg   -0.71868   0.50003    0.30477   
 Mg4149   Mg   -0.71874   0.16670    0.30477   
 O4150    O    -0.72500   0.83334    0.38095   
 O4151    O    -0.72500   0.50000    0.38095   
 O4152    O    -0.72499   0.16667    0.38096   
 O4153    O    -0.49368   0.83333    0.30477   
 O4154    O    -0.49368   0.50002    0.30477   
 O4155    O    -0.49372   0.16668    0.30478   
 O4156    O    -0.49369   0.99995    0.38096   
 O4157    O    -0.49367   0.66668    0.38096   
 O4158    O    -0.49369   0.33341    0.38096   
 Mg4159   Mg   -0.49368   0.83336    0.38096   
 Mg4160   Mg   -0.49368   0.49999    0.38095   
 Mg4161   Mg   -0.49370   0.16668    0.38095   
 Mg4162   Mg   -0.49370   0.00007    0.30476   
 Mg4163   Mg   -0.49370   0.66668    0.30477   
 Mg4164   Mg   -0.49370   0.33329    0.30476   
 O4165    O    -0.26236   0.83335    0.38096   
 O4166    O    -0.26237   0.50002    0.38096   
 O4167    O    -0.26242   0.16668    0.38095   
 O4168    O    -0.26236   0.00003    0.30476   
 O4169    O    -0.26242   0.66668    0.30477   
 O4170    O    -0.26237   0.33334    0.30477   
 Mg4171   Mg   -0.26867   0.99998    0.38096   
 Mg4172   Mg   -0.26868   0.66667    0.38095   
 Mg4173   Mg   -0.26867   0.33336    0.38095   
 Mg4174   Mg   -0.26869   0.83333    0.30476   
 Mg4175   Mg   -0.26869   0.50001    0.30477   
 Mg4176   Mg   -0.26869   0.16666    0.30477   
 O4177    O    -1.72502   0.00002    0.30477   
 O4178    O    -1.72495   0.66668    0.30476   
 O4179    O    -1.72502   0.33332    0.30476   
 Mg4180   Mg   -1.71869   0.99999    0.38095   
 Mg4181   Mg   -1.71868   0.66669    0.38096   
 Mg4182   Mg   -1.71869   0.33339    0.38096   
 Mg4183   Mg   -1.71868   0.83334    0.30477   
 Mg4184   Mg   -1.71868   0.50003    0.30477   
 Mg4185   Mg   -1.71874   0.16670    0.30477   
 O4186    O    -1.72500   0.83334    0.38095   
 O4187    O    -1.72500   0.50000    0.38095   
 O4188    O    -1.72499   0.16667    0.38096   
 O4189    O    -1.49368   0.83333    0.30477   
 O4190    O    -1.49368   0.50002    0.30477   
 O4191    O    -1.49372   0.16668    0.30478   
 O4192    O    -1.49369   0.99995    0.38096   
 O4193    O    -1.49367   0.66668    0.38096   
 O4194    O    -1.49369   0.33341    0.38096   
 Mg4195   Mg   -1.49368   0.83336    0.38096   
 Mg4196   Mg   -1.49368   0.49999    0.38095   
 Mg4197   Mg   -1.49370   0.16668    0.38095   
 Mg4198   Mg   -1.49370   0.00007    0.30476   
 Mg4199   Mg   -1.49370   0.66668    0.30477   
 Mg4200   Mg   -1.49370   0.33329    0.30476   
 O4201    O    -1.26236   0.83335    0.38096   
 O4202    O    -1.26237   0.50002    0.38096   
 O4203    O    -1.26242   0.16668    0.38095   
 O4204    O    -1.26236   0.00003    0.30476   
 O4205    O    -1.26242   0.66668    0.30477   
 O4206    O    -1.26237   0.33334    0.30477   
 Mg4207   Mg   -1.26867   0.99998    0.38096   
 Mg4208   Mg   -1.26868   0.66667    0.38095   
 Mg4209   Mg   -1.26867   0.33336    0.38095   
 Mg4210   Mg   -1.26869   0.83333    0.30476   
 Mg4211   Mg   -1.26869   0.50001    0.30477   
 Mg4212   Mg   -1.26869   0.16666    0.30477   
 O4213    O    -2.72502   0.00002    0.30477   
 O4214    O    -2.72495   0.66668    0.30476   
 O4215    O    -2.72502   0.33332    0.30476   
 Mg4216   Mg   -2.71869   0.99999    0.38095   
 Mg4217   Mg   -2.71868   0.66669    0.38096   
 Mg4218   Mg   -2.71869   0.33339    0.38096   
 Mg4219   Mg   -2.71868   0.83334    0.30477   
 Mg4220   Mg   -2.71868   0.50003    0.30477   
 Mg4221   Mg   -2.71874   0.16670    0.30477   
 O4222    O    -2.72500   0.83334    0.38095   
 O4223    O    -2.72500   0.50000    0.38095   
 O4224    O    -2.72499   0.16667    0.38096   
 O4225    O    -2.49368   0.83333    0.30477   
 O4226    O    -2.49368   0.50002    0.30477   
 O4227    O    -2.49372   0.16668    0.30478   
 O4228    O    -2.49369   0.99995    0.38096   
 O4229    O    -2.49367   0.66668    0.38096   
 O4230    O    -2.49369   0.33341    0.38096   
 Mg4231   Mg   -2.49368   0.83336    0.38096   
 Mg4232   Mg   -2.49368   0.49999    0.38095   
 Mg4233   Mg   -2.49370   0.16668    0.38095   
 Mg4234   Mg   -2.49370   0.00007    0.30476   
 Mg4235   Mg   -2.49370   0.66668    0.30477   
 Mg4236   Mg   -2.49370   0.33329    0.30476   
 O4237    O    -2.26236   0.83335    0.38096   
 O4238    O    -2.26237   0.50002    0.38096   
 O4239    O    -2.26242   0.16668    0.38095   
 O4240    O    -2.26236   0.00003    0.30476   
 O4241    O    -2.26242   0.66668    0.30477   
 O4242    O    -2.26237   0.33334    0.30477   
 Mg4243   Mg   -2.26867   0.99998    0.38096   
 Mg4244   Mg   -2.26868   0.66667    0.38095   
 Mg4245   Mg   -2.26867   0.33336    0.38095   
 Mg4246   Mg   -2.26869   0.83333    0.30476   
 Mg4247   Mg   -2.26869   0.50001    0.30477   
 Mg4248   Mg   -2.26869   0.16666    0.30477   
 O4249    O    -3.72502   0.00002    0.30477   
 O4250    O    -3.72495   0.66668    0.30476   
 O4251    O    -3.72502   0.33332    0.30476   
 Mg4252   Mg   -3.71869   0.99999    0.38095   
 Mg4253   Mg   -3.71868   0.66669    0.38096   
 Mg4254   Mg   -3.71869   0.33339    0.38096   
 Mg4255   Mg   -3.71868   0.83334    0.30477   
 Mg4256   Mg   -3.71868   0.50003    0.30477   
 Mg4257   Mg   -3.71874   0.16670    0.30477   
 O4258    O    -3.72500   0.83334    0.38095   
 O4259    O    -3.72500   0.50000    0.38095   
 O4260    O    -3.72499   0.16667    0.38096   
 O4261    O    -3.49368   0.83333    0.30477   
 O4262    O    -3.49368   0.50002    0.30477   
 O4263    O    -3.49372   0.16668    0.30478   
 O4264    O    -3.49369   0.99995    0.38096   
 O4265    O    -3.49367   0.66668    0.38096   
 O4266    O    -3.49369   0.33341    0.38096   
 Mg4267   Mg   -3.49368   0.83336    0.38096   
 Mg4268   Mg   -3.49368   0.49999    0.38095   
 Mg4269   Mg   -3.49370   0.16668    0.38095   
 Mg4270   Mg   -3.49370   0.00007    0.30476   
 Mg4271   Mg   -3.49370   0.66668    0.30477   
 Mg4272   Mg   -3.49370   0.33329    0.30476   
 O4273    O    -3.26236   0.83335    0.38096   
 O4274    O    -3.26237   0.50002    0.38096   
 O4275    O    -3.26242   0.16668    0.38095   
 O4276    O    -3.26236   0.00003    0.30476   
 O4277    O    -3.26242   0.66668    0.30477   
 O4278    O    -3.26237   0.33334    0.30477   
 Mg4279   Mg   -3.26867   0.99998    0.38096   
 Mg4280   Mg   -3.26868   0.66667    0.38095   
 Mg4281   Mg   -3.26867   0.33336    0.38095   
 Mg4282   Mg   -3.26869   0.83333    0.30476   
 Mg4283   Mg   -3.26869   0.50001    0.30477   
 Mg4284   Mg   -3.26869   0.16666    0.30477   
 O4285    O    2.27498    -0.99998   0.30477   
 O4286    O    2.27505    -0.33332   0.30476   
 O4287    O    2.27498    -0.66668   0.30476   
 Mg4288   Mg   2.28131    -0.00001   0.38095   
 Mg4289   Mg   2.28132    -0.33331   0.38096   
 Mg4290   Mg   2.28131    -0.66661   0.38096   
 Mg4291   Mg   2.28132    -0.16666   0.30477   
 Mg4292   Mg   2.28132    -0.49997   0.30477   
 Mg4293   Mg   2.28126    -0.83330   0.30477   
 O4294    O    2.27500    -0.16666   0.38095   
 O4295    O    2.27500    -0.50000   0.38095   
 O4296    O    2.27501    -0.83333   0.38096   
 O4297    O    2.50632    -0.16667   0.30477   
 O4298    O    2.50632    -0.49998   0.30477   
 O4299    O    2.50628    -0.83332   0.30478   
 O4300    O    2.50631    -0.00005   0.38096   
 O4301    O    2.50633    -0.33332   0.38096   
 O4302    O    2.50631    -0.66659   0.38096   
 Mg4303   Mg   2.50632    -0.16664   0.38096   
 Mg4304   Mg   2.50632    -0.50001   0.38095   
 Mg4305   Mg   2.50630    -0.83332   0.38095   
 Mg4306   Mg   2.50630    -0.99993   0.30476   
 Mg4307   Mg   2.50630    -0.33332   0.30477   
 Mg4308   Mg   2.50630    -0.66671   0.30476   
 O4309    O    2.73764    -0.16665   0.38096   
 O4310    O    2.73763    -0.49998   0.38096   
 O4311    O    2.73758    -0.83332   0.38095   
 O4312    O    2.73764    -0.99997   0.30476   
 O4313    O    2.73758    -0.33332   0.30477   
 O4314    O    2.73763    -0.66666   0.30477   
 Mg4315   Mg   2.73133    -0.00002   0.38096   
 Mg4316   Mg   2.73132    -0.33333   0.38095   
 Mg4317   Mg   2.73133    -0.66664   0.38095   
 Mg4318   Mg   2.73131    -0.16667   0.30476   
 Mg4319   Mg   2.73131    -0.49999   0.30477   
 Mg4320   Mg   2.73131    -0.83334   0.30477   
 O4321    O    1.27498    -0.99998   0.30477   
 O4322    O    1.27505    -0.33332   0.30476   
 O4323    O    1.27498    -0.66668   0.30476   
 Mg4324   Mg   1.28131    -0.00001   0.38095   
 Mg4325   Mg   1.28132    -0.33331   0.38096   
 Mg4326   Mg   1.28131    -0.66661   0.38096   
 Mg4327   Mg   1.28132    -0.16666   0.30477   
 Mg4328   Mg   1.28132    -0.49997   0.30477   
 Mg4329   Mg   1.28126    -0.83330   0.30477   
 O4330    O    1.27500    -0.16666   0.38095   
 O4331    O    1.27500    -0.50000   0.38095   
 O4332    O    1.27501    -0.83333   0.38096   
 O4333    O    1.50632    -0.16667   0.30477   
 O4334    O    1.50632    -0.49998   0.30477   
 O4335    O    1.50628    -0.83332   0.30478   
 O4336    O    1.50631    -0.00005   0.38096   
 O4337    O    1.50633    -0.33332   0.38096   
 O4338    O    1.50631    -0.66659   0.38096   
 Mg4339   Mg   1.50632    -0.16664   0.38096   
 Mg4340   Mg   1.50632    -0.50001   0.38095   
 Mg4341   Mg   1.50630    -0.83332   0.38095   
 Mg4342   Mg   1.50630    -0.99993   0.30476   
 Mg4343   Mg   1.50630    -0.33332   0.30477   
 Mg4344   Mg   1.50630    -0.66671   0.30476   
 O4345    O    1.73764    -0.16665   0.38096   
 O4346    O    1.73763    -0.49998   0.38096   
 O4347    O    1.73758    -0.83332   0.38095   
 O4348    O    1.73764    -0.99997   0.30476   
 O4349    O    1.73758    -0.33332   0.30477   
 O4350    O    1.73763    -0.66666   0.30477   
 Mg4351   Mg   1.73133    -0.00002   0.38096   
 Mg4352   Mg   1.73132    -0.33333   0.38095   
 Mg4353   Mg   1.73133    -0.66664   0.38095   
 Mg4354   Mg   1.73131    -0.16667   0.30476   
 Mg4355   Mg   1.73131    -0.49999   0.30477   
 Mg4356   Mg   1.73131    -0.83334   0.30477   
 O4357    O    0.27498    -0.99998   0.30477   
 O4358    O    0.27505    -0.33332   0.30476   
 O4359    O    0.27498    -0.66668   0.30476   
 Mg4360   Mg   0.28131    -0.00001   0.38095   
 Mg4361   Mg   0.28132    -0.33331   0.38096   
 Mg4362   Mg   0.28131    -0.66661   0.38096   
 Mg4363   Mg   0.28132    -0.16666   0.30477   
 Mg4364   Mg   0.28132    -0.49997   0.30477   
 Mg4365   Mg   0.28126    -0.83330   0.30477   
 O4366    O    0.27500    -0.16666   0.38095   
 O4367    O    0.27500    -0.50000   0.38095   
 O4368    O    0.27501    -0.83333   0.38096   
 O4369    O    0.50632    -0.16667   0.30477   
 O4370    O    0.50632    -0.49998   0.30477   
 O4371    O    0.50628    -0.83332   0.30478   
 O4372    O    0.50631    -0.00005   0.38096   
 O4373    O    0.50633    -0.33332   0.38096   
 O4374    O    0.50631    -0.66659   0.38096   
 Mg4375   Mg   0.50632    -0.16664   0.38096   
 Mg4376   Mg   0.50632    -0.50001   0.38095   
 Mg4377   Mg   0.50630    -0.83332   0.38095   
 Mg4378   Mg   0.50630    -0.99993   0.30476   
 Mg4379   Mg   0.50630    -0.33332   0.30477   
 Mg4380   Mg   0.50630    -0.66671   0.30476   
 O4381    O    0.73764    -0.16665   0.38096   
 O4382    O    0.73763    -0.49998   0.38096   
 O4383    O    0.73758    -0.83332   0.38095   
 O4384    O    0.73764    -0.99997   0.30476   
 O4385    O    0.73758    -0.33332   0.30477   
 O4386    O    0.73763    -0.66666   0.30477   
 Mg4387   Mg   0.73133    -0.00002   0.38096   
 Mg4388   Mg   0.73132    -0.33333   0.38095   
 Mg4389   Mg   0.73133    -0.66664   0.38095   
 Mg4390   Mg   0.73131    -0.16667   0.30476   
 Mg4391   Mg   0.73131    -0.49999   0.30477   
 Mg4392   Mg   0.73131    -0.83334   0.30477   
 O4393    O    -0.72502   -0.99998   0.30477   
 O4394    O    -0.72495   -0.33332   0.30476   
 O4395    O    -0.72502   -0.66668   0.30476   
 Mg4396   Mg   -0.71869   -0.00001   0.38095   
 Mg4397   Mg   -0.71868   -0.33331   0.38096   
 Mg4398   Mg   -0.71869   -0.66661   0.38096   
 Mg4399   Mg   -0.71868   -0.16666   0.30477   
 Mg4400   Mg   -0.71868   -0.49997   0.30477   
 Mg4401   Mg   -0.71874   -0.83330   0.30477   
 O4402    O    -0.72500   -0.16666   0.38095   
 O4403    O    -0.72500   -0.50000   0.38095   
 O4404    O    -0.72499   -0.83333   0.38096   
 O4405    O    -0.49368   -0.16667   0.30477   
 O4406    O    -0.49368   -0.49998   0.30477   
 O4407    O    -0.49372   -0.83332   0.30478   
 O4408    O    -0.49369   -0.00005   0.38096   
 O4409    O    -0.49367   -0.33332   0.38096   
 O4410    O    -0.49369   -0.66659   0.38096   
 Mg4411   Mg   -0.49368   -0.16664   0.38096   
 Mg4412   Mg   -0.49368   -0.50001   0.38095   
 Mg4413   Mg   -0.49370   -0.83332   0.38095   
 Mg4414   Mg   -0.49370   -0.99993   0.30476   
 Mg4415   Mg   -0.49370   -0.33332   0.30477   
 Mg4416   Mg   -0.49370   -0.66671   0.30476   
 O4417    O    -0.26236   -0.16665   0.38096   
 O4418    O    -0.26237   -0.49998   0.38096   
 O4419    O    -0.26242   -0.83332   0.38095   
 O4420    O    -0.26236   -0.99997   0.30476   
 O4421    O    -0.26242   -0.33332   0.30477   
 O4422    O    -0.26237   -0.66666   0.30477   
 Mg4423   Mg   -0.26867   -0.00002   0.38096   
 Mg4424   Mg   -0.26868   -0.33333   0.38095   
 Mg4425   Mg   -0.26867   -0.66664   0.38095   
 Mg4426   Mg   -0.26869   -0.16667   0.30476   
 Mg4427   Mg   -0.26869   -0.49999   0.30477   
 Mg4428   Mg   -0.26869   -0.83334   0.30477   
 O4429    O    -1.72502   -0.99998   0.30477   
 O4430    O    -1.72495   -0.33332   0.30476   
 O4431    O    -1.72502   -0.66668   0.30476   
 Mg4432   Mg   -1.71869   -0.00001   0.38095   
 Mg4433   Mg   -1.71868   -0.33331   0.38096   
 Mg4434   Mg   -1.71869   -0.66661   0.38096   
 Mg4435   Mg   -1.71868   -0.16666   0.30477   
 Mg4436   Mg   -1.71868   -0.49997   0.30477   
 Mg4437   Mg   -1.71874   -0.83330   0.30477   
 O4438    O    -1.72500   -0.16666   0.38095   
 O4439    O    -1.72500   -0.50000   0.38095   
 O4440    O    -1.72499   -0.83333   0.38096   
 O4441    O    -1.49368   -0.16667   0.30477   
 O4442    O    -1.49368   -0.49998   0.30477   
 O4443    O    -1.49372   -0.83332   0.30478   
 O4444    O    -1.49369   -0.00005   0.38096   
 O4445    O    -1.49367   -0.33332   0.38096   
 O4446    O    -1.49369   -0.66659   0.38096   
 Mg4447   Mg   -1.49368   -0.16664   0.38096   
 Mg4448   Mg   -1.49368   -0.50001   0.38095   
 Mg4449   Mg   -1.49370   -0.83332   0.38095   
 Mg4450   Mg   -1.49370   -0.99993   0.30476   
 Mg4451   Mg   -1.49370   -0.33332   0.30477   
 Mg4452   Mg   -1.49370   -0.66671   0.30476   
 O4453    O    -1.26236   -0.16665   0.38096   
 O4454    O    -1.26237   -0.49998   0.38096   
 O4455    O    -1.26242   -0.83332   0.38095   
 O4456    O    -1.26236   -0.99997   0.30476   
 O4457    O    -1.26242   -0.33332   0.30477   
 O4458    O    -1.26237   -0.66666   0.30477   
 Mg4459   Mg   -1.26867   -0.00002   0.38096   
 Mg4460   Mg   -1.26868   -0.33333   0.38095   
 Mg4461   Mg   -1.26867   -0.66664   0.38095   
 Mg4462   Mg   -1.26869   -0.16667   0.30476   
 Mg4463   Mg   -1.26869   -0.49999   0.30477   
 Mg4464   Mg   -1.26869   -0.83334   0.30477   
 O4465    O    -2.72502   -0.99998   0.30477   
 O4466    O    -2.72495   -0.33332   0.30476   
 O4467    O    -2.72502   -0.66668   0.30476   
 Mg4468   Mg   -2.71869   -0.00001   0.38095   
 Mg4469   Mg   -2.71868   -0.33331   0.38096   
 Mg4470   Mg   -2.71869   -0.66661   0.38096   
 Mg4471   Mg   -2.71868   -0.16666   0.30477   
 Mg4472   Mg   -2.71868   -0.49997   0.30477   
 Mg4473   Mg   -2.71874   -0.83330   0.30477   
 O4474    O    -2.72500   -0.16666   0.38095   
 O4475    O    -2.72500   -0.50000   0.38095   
 O4476    O    -2.72499   -0.83333   0.38096   
 O4477    O    -2.49368   -0.16667   0.30477   
 O4478    O    -2.49368   -0.49998   0.30477   
 O4479    O    -2.49372   -0.83332   0.30478   
 O4480    O    -2.49369   -0.00005   0.38096   
 O4481    O    -2.49367   -0.33332   0.38096   
 O4482    O    -2.49369   -0.66659   0.38096   
 Mg4483   Mg   -2.49368   -0.16664   0.38096   
 Mg4484   Mg   -2.49368   -0.50001   0.38095   
 Mg4485   Mg   -2.49370   -0.83332   0.38095   
 Mg4486   Mg   -2.49370   -0.99993   0.30476   
 Mg4487   Mg   -2.49370   -0.33332   0.30477   
 Mg4488   Mg   -2.49370   -0.66671   0.30476   
 O4489    O    -2.26236   -0.16665   0.38096   
 O4490    O    -2.26237   -0.49998   0.38096   
 O4491    O    -2.26242   -0.83332   0.38095   
 O4492    O    -2.26236   -0.99997   0.30476   
 O4493    O    -2.26242   -0.33332   0.30477   
 O4494    O    -2.26237   -0.66666   0.30477   
 Mg4495   Mg   -2.26867   -0.00002   0.38096   
 Mg4496   Mg   -2.26868   -0.33333   0.38095   
 Mg4497   Mg   -2.26867   -0.66664   0.38095   
 Mg4498   Mg   -2.26869   -0.16667   0.30476   
 Mg4499   Mg   -2.26869   -0.49999   0.30477   
 Mg4500   Mg   -2.26869   -0.83334   0.30477   
 O4501    O    -3.72502   -0.99998   0.30477   
 O4502    O    -3.72495   -0.33332   0.30476   
 O4503    O    -3.72502   -0.66668   0.30476   
 Mg4504   Mg   -3.71869   -0.00001   0.38095   
 Mg4505   Mg   -3.71868   -0.33331   0.38096   
 Mg4506   Mg   -3.71869   -0.66661   0.38096   
 Mg4507   Mg   -3.71868   -0.16666   0.30477   
 Mg4508   Mg   -3.71868   -0.49997   0.30477   
 Mg4509   Mg   -3.71874   -0.83330   0.30477   
 O4510    O    -3.72500   -0.16666   0.38095   
 O4511    O    -3.72500   -0.50000   0.38095   
 O4512    O    -3.72499   -0.83333   0.38096   
 O4513    O    -3.49368   -0.16667   0.30477   
 O4514    O    -3.49368   -0.49998   0.30477   
 O4515    O    -3.49372   -0.83332   0.30478   
 O4516    O    -3.49369   -0.00005   0.38096   
 O4517    O    -3.49367   -0.33332   0.38096   
 O4518    O    -3.49369   -0.66659   0.38096   
 Mg4519   Mg   -3.49368   -0.16664   0.38096   
 Mg4520   Mg   -3.49368   -0.50001   0.38095   
 Mg4521   Mg   -3.49370   -0.83332   0.38095   
 Mg4522   Mg   -3.49370   -0.99993   0.30476   
 Mg4523   Mg   -3.49370   -0.33332   0.30477   
 Mg4524   Mg   -3.49370   -0.66671   0.30476   
 O4525    O    -3.26236   -0.16665   0.38096   
 O4526    O    -3.26237   -0.49998   0.38096   
 O4527    O    -3.26242   -0.83332   0.38095   
 O4528    O    -3.26236   -0.99997   0.30476   
 O4529    O    -3.26242   -0.33332   0.30477   
 O4530    O    -3.26237   -0.66666   0.30477   
 Mg4531   Mg   -3.26867   -0.00002   0.38096   
 Mg4532   Mg   -3.26868   -0.33333   0.38095   
 Mg4533   Mg   -3.26867   -0.66664   0.38095   
 Mg4534   Mg   -3.26869   -0.16667   0.30476   
 Mg4535   Mg   -3.26869   -0.49999   0.30477   
 Mg4536   Mg   -3.26869   -0.83334   0.30477   
 O4537    O    2.27498    -1.99998   0.30477   
 O4538    O    2.27505    -1.33332   0.30476   
 O4539    O    2.27498    -1.66668   0.30476   
 Mg4540   Mg   2.28131    -1.00001   0.38095   
 Mg4541   Mg   2.28132    -1.33331   0.38096   
 Mg4542   Mg   2.28131    -1.66661   0.38096   
 Mg4543   Mg   2.28132    -1.16666   0.30477   
 Mg4544   Mg   2.28132    -1.49997   0.30477   
 Mg4545   Mg   2.28126    -1.83330   0.30477   
 O4546    O    2.27500    -1.16666   0.38095   
 O4547    O    2.27500    -1.50000   0.38095   
 O4548    O    2.27501    -1.83333   0.38096   
 O4549    O    2.50632    -1.16667   0.30477   
 O4550    O    2.50632    -1.49998   0.30477   
 O4551    O    2.50628    -1.83332   0.30478   
 O4552    O    2.50631    -1.00005   0.38096   
 O4553    O    2.50633    -1.33332   0.38096   
 O4554    O    2.50631    -1.66659   0.38096   
 Mg4555   Mg   2.50632    -1.16664   0.38096   
 Mg4556   Mg   2.50632    -1.50001   0.38095   
 Mg4557   Mg   2.50630    -1.83332   0.38095   
 Mg4558   Mg   2.50630    -1.99993   0.30476   
 Mg4559   Mg   2.50630    -1.33332   0.30477   
 Mg4560   Mg   2.50630    -1.66671   0.30476   
 O4561    O    2.73764    -1.16665   0.38096   
 O4562    O    2.73763    -1.49998   0.38096   
 O4563    O    2.73758    -1.83332   0.38095   
 O4564    O    2.73764    -1.99997   0.30476   
 O4565    O    2.73758    -1.33332   0.30477   
 O4566    O    2.73763    -1.66666   0.30477   
 Mg4567   Mg   2.73133    -1.00002   0.38096   
 Mg4568   Mg   2.73132    -1.33333   0.38095   
 Mg4569   Mg   2.73133    -1.66664   0.38095   
 Mg4570   Mg   2.73131    -1.16667   0.30476   
 Mg4571   Mg   2.73131    -1.49999   0.30477   
 Mg4572   Mg   2.73131    -1.83334   0.30477   
 O4573    O    1.27498    -1.99998   0.30477   
 O4574    O    1.27505    -1.33332   0.30476   
 O4575    O    1.27498    -1.66668   0.30476   
 Mg4576   Mg   1.28131    -1.00001   0.38095   
 Mg4577   Mg   1.28132    -1.33331   0.38096   
 Mg4578   Mg   1.28131    -1.66661   0.38096   
 Mg4579   Mg   1.28132    -1.16666   0.30477   
 Mg4580   Mg   1.28132    -1.49997   0.30477   
 Mg4581   Mg   1.28126    -1.83330   0.30477   
 O4582    O    1.27500    -1.16666   0.38095   
 O4583    O    1.27500    -1.50000   0.38095   
 O4584    O    1.27501    -1.83333   0.38096   
 O4585    O    1.50632    -1.16667   0.30477   
 O4586    O    1.50632    -1.49998   0.30477   
 O4587    O    1.50628    -1.83332   0.30478   
 O4588    O    1.50631    -1.00005   0.38096   
 O4589    O    1.50633    -1.33332   0.38096   
 O4590    O    1.50631    -1.66659   0.38096   
 Mg4591   Mg   1.50632    -1.16664   0.38096   
 Mg4592   Mg   1.50632    -1.50001   0.38095   
 Mg4593   Mg   1.50630    -1.83332   0.38095   
 Mg4594   Mg   1.50630    -1.99993   0.30476   
 Mg4595   Mg   1.50630    -1.33332   0.30477   
 Mg4596   Mg   1.50630    -1.66671   0.30476   
 O4597    O    1.73764    -1.16665   0.38096   
 O4598    O    1.73763    -1.49998   0.38096   
 O4599    O    1.73758    -1.83332   0.38095   
 O4600    O    1.73764    -1.99997   0.30476   
 O4601    O    1.73758    -1.33332   0.30477   
 O4602    O    1.73763    -1.66666   0.30477   
 Mg4603   Mg   1.73133    -1.00002   0.38096   
 Mg4604   Mg   1.73132    -1.33333   0.38095   
 Mg4605   Mg   1.73133    -1.66664   0.38095   
 Mg4606   Mg   1.73131    -1.16667   0.30476   
 Mg4607   Mg   1.73131    -1.49999   0.30477   
 Mg4608   Mg   1.73131    -1.83334   0.30477   
 O4609    O    0.27498    -1.99998   0.30477   
 O4610    O    0.27505    -1.33332   0.30476   
 O4611    O    0.27498    -1.66668   0.30476   
 Mg4612   Mg   0.28131    -1.00001   0.38095   
 Mg4613   Mg   0.28132    -1.33331   0.38096   
 Mg4614   Mg   0.28131    -1.66661   0.38096   
 Mg4615   Mg   0.28132    -1.16666   0.30477   
 Mg4616   Mg   0.28132    -1.49997   0.30477   
 Mg4617   Mg   0.28126    -1.83330   0.30477   
 O4618    O    0.27500    -1.16666   0.38095   
 O4619    O    0.27500    -1.50000   0.38095   
 O4620    O    0.27501    -1.83333   0.38096   
 O4621    O    0.50632    -1.16667   0.30477   
 O4622    O    0.50632    -1.49998   0.30477   
 O4623    O    0.50628    -1.83332   0.30478   
 O4624    O    0.50631    -1.00005   0.38096   
 O4625    O    0.50633    -1.33332   0.38096   
 O4626    O    0.50631    -1.66659   0.38096   
 Mg4627   Mg   0.50632    -1.16664   0.38096   
 Mg4628   Mg   0.50632    -1.50001   0.38095   
 Mg4629   Mg   0.50630    -1.83332   0.38095   
 Mg4630   Mg   0.50630    -1.99993   0.30476   
 Mg4631   Mg   0.50630    -1.33332   0.30477   
 Mg4632   Mg   0.50630    -1.66671   0.30476   
 O4633    O    0.73764    -1.16665   0.38096   
 O4634    O    0.73763    -1.49998   0.38096   
 O4635    O    0.73758    -1.83332   0.38095   
 O4636    O    0.73764    -1.99997   0.30476   
 O4637    O    0.73758    -1.33332   0.30477   
 O4638    O    0.73763    -1.66666   0.30477   
 Mg4639   Mg   0.73133    -1.00002   0.38096   
 Mg4640   Mg   0.73132    -1.33333   0.38095   
 Mg4641   Mg   0.73133    -1.66664   0.38095   
 Mg4642   Mg   0.73131    -1.16667   0.30476   
 Mg4643   Mg   0.73131    -1.49999   0.30477   
 Mg4644   Mg   0.73131    -1.83334   0.30477   
 O4645    O    -0.72502   -1.99998   0.30477   
 O4646    O    -0.72495   -1.33332   0.30476   
 O4647    O    -0.72502   -1.66668   0.30476   
 Mg4648   Mg   -0.71869   -1.00001   0.38095   
 Mg4649   Mg   -0.71868   -1.33331   0.38096   
 Mg4650   Mg   -0.71869   -1.66661   0.38096   
 Mg4651   Mg   -0.71868   -1.16666   0.30477   
 Mg4652   Mg   -0.71868   -1.49997   0.30477   
 Mg4653   Mg   -0.71874   -1.83330   0.30477   
 O4654    O    -0.72500   -1.16666   0.38095   
 O4655    O    -0.72500   -1.50000   0.38095   
 O4656    O    -0.72499   -1.83333   0.38096   
 O4657    O    -0.49368   -1.16667   0.30477   
 O4658    O    -0.49368   -1.49998   0.30477   
 O4659    O    -0.49372   -1.83332   0.30478   
 O4660    O    -0.49369   -1.00005   0.38096   
 O4661    O    -0.49367   -1.33332   0.38096   
 O4662    O    -0.49369   -1.66659   0.38096   
 Mg4663   Mg   -0.49368   -1.16664   0.38096   
 Mg4664   Mg   -0.49368   -1.50001   0.38095   
 Mg4665   Mg   -0.49370   -1.83332   0.38095   
 Mg4666   Mg   -0.49370   -1.99993   0.30476   
 Mg4667   Mg   -0.49370   -1.33332   0.30477   
 Mg4668   Mg   -0.49370   -1.66671   0.30476   
 O4669    O    -0.26236   -1.16665   0.38096   
 O4670    O    -0.26237   -1.49998   0.38096   
 O4671    O    -0.26242   -1.83332   0.38095   
 O4672    O    -0.26236   -1.99997   0.30476   
 O4673    O    -0.26242   -1.33332   0.30477   
 O4674    O    -0.26237   -1.66666   0.30477   
 Mg4675   Mg   -0.26867   -1.00002   0.38096   
 Mg4676   Mg   -0.26868   -1.33333   0.38095   
 Mg4677   Mg   -0.26867   -1.66664   0.38095   
 Mg4678   Mg   -0.26869   -1.16667   0.30476   
 Mg4679   Mg   -0.26869   -1.49999   0.30477   
 Mg4680   Mg   -0.26869   -1.83334   0.30477   
 O4681    O    -1.72502   -1.99998   0.30477   
 O4682    O    -1.72495   -1.33332   0.30476   
 O4683    O    -1.72502   -1.66668   0.30476   
 Mg4684   Mg   -1.71869   -1.00001   0.38095   
 Mg4685   Mg   -1.71868   -1.33331   0.38096   
 Mg4686   Mg   -1.71869   -1.66661   0.38096   
 Mg4687   Mg   -1.71868   -1.16666   0.30477   
 Mg4688   Mg   -1.71868   -1.49997   0.30477   
 Mg4689   Mg   -1.71874   -1.83330   0.30477   
 O4690    O    -1.72500   -1.16666   0.38095   
 O4691    O    -1.72500   -1.50000   0.38095   
 O4692    O    -1.72499   -1.83333   0.38096   
 O4693    O    -1.49368   -1.16667   0.30477   
 O4694    O    -1.49368   -1.49998   0.30477   
 O4695    O    -1.49372   -1.83332   0.30478   
 O4696    O    -1.49369   -1.00005   0.38096   
 O4697    O    -1.49367   -1.33332   0.38096   
 O4698    O    -1.49369   -1.66659   0.38096   
 Mg4699   Mg   -1.49368   -1.16664   0.38096   
 Mg4700   Mg   -1.49368   -1.50001   0.38095   
 Mg4701   Mg   -1.49370   -1.83332   0.38095   
 Mg4702   Mg   -1.49370   -1.99993   0.30476   
 Mg4703   Mg   -1.49370   -1.33332   0.30477   
 Mg4704   Mg   -1.49370   -1.66671   0.30476   
 O4705    O    -1.26236   -1.16665   0.38096   
 O4706    O    -1.26237   -1.49998   0.38096   
 O4707    O    -1.26242   -1.83332   0.38095   
 O4708    O    -1.26236   -1.99997   0.30476   
 O4709    O    -1.26242   -1.33332   0.30477   
 O4710    O    -1.26237   -1.66666   0.30477   
 Mg4711   Mg   -1.26867   -1.00002   0.38096   
 Mg4712   Mg   -1.26868   -1.33333   0.38095   
 Mg4713   Mg   -1.26867   -1.66664   0.38095   
 Mg4714   Mg   -1.26869   -1.16667   0.30476   
 Mg4715   Mg   -1.26869   -1.49999   0.30477   
 Mg4716   Mg   -1.26869   -1.83334   0.30477   
 O4717    O    -2.72502   -1.99998   0.30477   
 O4718    O    -2.72495   -1.33332   0.30476   
 O4719    O    -2.72502   -1.66668   0.30476   
 Mg4720   Mg   -2.71869   -1.00001   0.38095   
 Mg4721   Mg   -2.71868   -1.33331   0.38096   
 Mg4722   Mg   -2.71869   -1.66661   0.38096   
 Mg4723   Mg   -2.71868   -1.16666   0.30477   
 Mg4724   Mg   -2.71868   -1.49997   0.30477   
 Mg4725   Mg   -2.71874   -1.83330   0.30477   
 O4726    O    -2.72500   -1.16666   0.38095   
 O4727    O    -2.72500   -1.50000   0.38095   
 O4728    O    -2.72499   -1.83333   0.38096   
 O4729    O    -2.49368   -1.16667   0.30477   
 O4730    O    -2.49368   -1.49998   0.30477   
 O4731    O    -2.49372   -1.83332   0.30478   
 O4732    O    -2.49369   -1.00005   0.38096   
 O4733    O    -2.49367   -1.33332   0.38096   
 O4734    O    -2.49369   -1.66659   0.38096   
 Mg4735   Mg   -2.49368   -1.16664   0.38096   
 Mg4736   Mg   -2.49368   -1.50001   0.38095   
 Mg4737   Mg   -2.49370   -1.83332   0.38095   
 Mg4738   Mg   -2.49370   -1.99993   0.30476   
 Mg4739   Mg   -2.49370   -1.33332   0.30477   
 Mg4740   Mg   -2.49370   -1.66671   0.30476   
 O4741    O    -2.26236   -1.16665   0.38096   
 O4742    O    -2.26237   -1.49998   0.38096   
 O4743    O    -2.26242   -1.83332   0.38095   
 O4744    O    -2.26236   -1.99997   0.30476   
 O4745    O    -2.26242   -1.33332   0.30477   
 O4746    O    -2.26237   -1.66666   0.30477   
 Mg4747   Mg   -2.26867   -1.00002   0.38096   
 Mg4748   Mg   -2.26868   -1.33333   0.38095   
 Mg4749   Mg   -2.26867   -1.66664   0.38095   
 Mg4750   Mg   -2.26869   -1.16667   0.30476   
 Mg4751   Mg   -2.26869   -1.49999   0.30477   
 Mg4752   Mg   -2.26869   -1.83334   0.30477   
 O4753    O    -3.72502   -1.99998   0.30477   
 O4754    O    -3.72495   -1.33332   0.30476   
 O4755    O    -3.72502   -1.66668   0.30476   
 Mg4756   Mg   -3.71869   -1.00001   0.38095   
 Mg4757   Mg   -3.71868   -1.33331   0.38096   
 Mg4758   Mg   -3.71869   -1.66661   0.38096   
 Mg4759   Mg   -3.71868   -1.16666   0.30477   
 Mg4760   Mg   -3.71868   -1.49997   0.30477   
 Mg4761   Mg   -3.71874   -1.83330   0.30477   
 O4762    O    -3.72500   -1.16666   0.38095   
 O4763    O    -3.72500   -1.50000   0.38095   
 O4764    O    -3.72499   -1.83333   0.38096   
 O4765    O    -3.49368   -1.16667   0.30477   
 O4766    O    -3.49368   -1.49998   0.30477   
 O4767    O    -3.49372   -1.83332   0.30478   
 O4768    O    -3.49369   -1.00005   0.38096   
 O4769    O    -3.49367   -1.33332   0.38096   
 O4770    O    -3.49369   -1.66659   0.38096   
 Mg4771   Mg   -3.49368   -1.16664   0.38096   
 Mg4772   Mg   -3.49368   -1.50001   0.38095   
 Mg4773   Mg   -3.49370   -1.83332   0.38095   
 Mg4774   Mg   -3.49370   -1.99993   0.30476   
 Mg4775   Mg   -3.49370   -1.33332   0.30477   
 Mg4776   Mg   -3.49370   -1.66671   0.30476   
 O4777    O    -3.26236   -1.16665   0.38096   
 O4778    O    -3.26237   -1.49998   0.38096   
 O4779    O    -3.26242   -1.83332   0.38095   
 O4780    O    -3.26236   -1.99997   0.30476   
 O4781    O    -3.26242   -1.33332   0.30477   
 O4782    O    -3.26237   -1.66666   0.30477   
 Mg4783   Mg   -3.26867   -1.00002   0.38096   
 Mg4784   Mg   -3.26868   -1.33333   0.38095   
 Mg4785   Mg   -3.26867   -1.66664   0.38095   
 Mg4786   Mg   -3.26869   -1.16667   0.30476   
 Mg4787   Mg   -3.26869   -1.49999   0.30477   
 Mg4788   Mg   -3.26869   -1.83334   0.30477   
 O4789    O    2.27498    -2.99998   0.30477   
 O4790    O    2.27505    -2.33332   0.30476   
 O4791    O    2.27498    -2.66668   0.30476   
 Mg4792   Mg   2.28131    -2.00001   0.38095   
 Mg4793   Mg   2.28132    -2.33331   0.38096   
 Mg4794   Mg   2.28131    -2.66661   0.38096   
 Mg4795   Mg   2.28132    -2.16666   0.30477   
 Mg4796   Mg   2.28132    -2.49997   0.30477   
 Mg4797   Mg   2.28126    -2.83330   0.30477   
 O4798    O    2.27500    -2.16666   0.38095   
 O4799    O    2.27500    -2.50000   0.38095   
 O4800    O    2.27501    -2.83333   0.38096   
 O4801    O    2.50632    -2.16667   0.30477   
 O4802    O    2.50632    -2.49998   0.30477   
 O4803    O    2.50628    -2.83332   0.30478   
 O4804    O    2.50631    -2.00005   0.38096   
 O4805    O    2.50633    -2.33332   0.38096   
 O4806    O    2.50631    -2.66659   0.38096   
 Mg4807   Mg   2.50632    -2.16664   0.38096   
 Mg4808   Mg   2.50632    -2.50001   0.38095   
 Mg4809   Mg   2.50630    -2.83332   0.38095   
 Mg4810   Mg   2.50630    -2.99993   0.30476   
 Mg4811   Mg   2.50630    -2.33332   0.30477   
 Mg4812   Mg   2.50630    -2.66671   0.30476   
 O4813    O    2.73764    -2.16665   0.38096   
 O4814    O    2.73763    -2.49998   0.38096   
 O4815    O    2.73758    -2.83332   0.38095   
 O4816    O    2.73764    -2.99997   0.30476   
 O4817    O    2.73758    -2.33332   0.30477   
 O4818    O    2.73763    -2.66666   0.30477   
 Mg4819   Mg   2.73133    -2.00002   0.38096   
 Mg4820   Mg   2.73132    -2.33333   0.38095   
 Mg4821   Mg   2.73133    -2.66664   0.38095   
 Mg4822   Mg   2.73131    -2.16667   0.30476   
 Mg4823   Mg   2.73131    -2.49999   0.30477   
 Mg4824   Mg   2.73131    -2.83334   0.30477   
 O4825    O    1.27498    -2.99998   0.30477   
 O4826    O    1.27505    -2.33332   0.30476   
 O4827    O    1.27498    -2.66668   0.30476   
 Mg4828   Mg   1.28131    -2.00001   0.38095   
 Mg4829   Mg   1.28132    -2.33331   0.38096   
 Mg4830   Mg   1.28131    -2.66661   0.38096   
 Mg4831   Mg   1.28132    -2.16666   0.30477   
 Mg4832   Mg   1.28132    -2.49997   0.30477   
 Mg4833   Mg   1.28126    -2.83330   0.30477   
 O4834    O    1.27500    -2.16666   0.38095   
 O4835    O    1.27500    -2.50000   0.38095   
 O4836    O    1.27501    -2.83333   0.38096   
 O4837    O    1.50632    -2.16667   0.30477   
 O4838    O    1.50632    -2.49998   0.30477   
 O4839    O    1.50628    -2.83332   0.30478   
 O4840    O    1.50631    -2.00005   0.38096   
 O4841    O    1.50633    -2.33332   0.38096   
 O4842    O    1.50631    -2.66659   0.38096   
 Mg4843   Mg   1.50632    -2.16664   0.38096   
 Mg4844   Mg   1.50632    -2.50001   0.38095   
 Mg4845   Mg   1.50630    -2.83332   0.38095   
 Mg4846   Mg   1.50630    -2.99993   0.30476   
 Mg4847   Mg   1.50630    -2.33332   0.30477   
 Mg4848   Mg   1.50630    -2.66671   0.30476   
 O4849    O    1.73764    -2.16665   0.38096   
 O4850    O    1.73763    -2.49998   0.38096   
 O4851    O    1.73758    -2.83332   0.38095   
 O4852    O    1.73764    -2.99997   0.30476   
 O4853    O    1.73758    -2.33332   0.30477   
 O4854    O    1.73763    -2.66666   0.30477   
 Mg4855   Mg   1.73133    -2.00002   0.38096   
 Mg4856   Mg   1.73132    -2.33333   0.38095   
 Mg4857   Mg   1.73133    -2.66664   0.38095   
 Mg4858   Mg   1.73131    -2.16667   0.30476   
 Mg4859   Mg   1.73131    -2.49999   0.30477   
 Mg4860   Mg   1.73131    -2.83334   0.30477   
 O4861    O    0.27498    -2.99998   0.30477   
 O4862    O    0.27505    -2.33332   0.30476   
 O4863    O    0.27498    -2.66668   0.30476   
 Mg4864   Mg   0.28131    -2.00001   0.38095   
 Mg4865   Mg   0.28132    -2.33331   0.38096   
 Mg4866   Mg   0.28131    -2.66661   0.38096   
 Mg4867   Mg   0.28132    -2.16666   0.30477   
 Mg4868   Mg   0.28132    -2.49997   0.30477   
 Mg4869   Mg   0.28126    -2.83330   0.30477   
 O4870    O    0.27500    -2.16666   0.38095   
 O4871    O    0.27500    -2.50000   0.38095   
 O4872    O    0.27501    -2.83333   0.38096   
 O4873    O    0.50632    -2.16667   0.30477   
 O4874    O    0.50632    -2.49998   0.30477   
 O4875    O    0.50628    -2.83332   0.30478   
 O4876    O    0.50631    -2.00005   0.38096   
 O4877    O    0.50633    -2.33332   0.38096   
 O4878    O    0.50631    -2.66659   0.38096   
 Mg4879   Mg   0.50632    -2.16664   0.38096   
 Mg4880   Mg   0.50632    -2.50001   0.38095   
 Mg4881   Mg   0.50630    -2.83332   0.38095   
 Mg4882   Mg   0.50630    -2.99993   0.30476   
 Mg4883   Mg   0.50630    -2.33332   0.30477   
 Mg4884   Mg   0.50630    -2.66671   0.30476   
 O4885    O    0.73764    -2.16665   0.38096   
 O4886    O    0.73763    -2.49998   0.38096   
 O4887    O    0.73758    -2.83332   0.38095   
 O4888    O    0.73764    -2.99997   0.30476   
 O4889    O    0.73758    -2.33332   0.30477   
 O4890    O    0.73763    -2.66666   0.30477   
 Mg4891   Mg   0.73133    -2.00002   0.38096   
 Mg4892   Mg   0.73132    -2.33333   0.38095   
 Mg4893   Mg   0.73133    -2.66664   0.38095   
 Mg4894   Mg   0.73131    -2.16667   0.30476   
 Mg4895   Mg   0.73131    -2.49999   0.30477   
 Mg4896   Mg   0.73131    -2.83334   0.30477   
 O4897    O    -0.72502   -2.99998   0.30477   
 O4898    O    -0.72495   -2.33332   0.30476   
 O4899    O    -0.72502   -2.66668   0.30476   
 Mg4900   Mg   -0.71869   -2.00001   0.38095   
 Mg4901   Mg   -0.71868   -2.33331   0.38096   
 Mg4902   Mg   -0.71869   -2.66661   0.38096   
 Mg4903   Mg   -0.71868   -2.16666   0.30477   
 Mg4904   Mg   -0.71868   -2.49997   0.30477   
 Mg4905   Mg   -0.71874   -2.83330   0.30477   
 O4906    O    -0.72500   -2.16666   0.38095   
 O4907    O    -0.72500   -2.50000   0.38095   
 O4908    O    -0.72499   -2.83333   0.38096   
 O4909    O    -0.49368   -2.16667   0.30477   
 O4910    O    -0.49368   -2.49998   0.30477   
 O4911    O    -0.49372   -2.83332   0.30478   
 O4912    O    -0.49369   -2.00005   0.38096   
 O4913    O    -0.49367   -2.33332   0.38096   
 O4914    O    -0.49369   -2.66659   0.38096   
 Mg4915   Mg   -0.49368   -2.16664   0.38096   
 Mg4916   Mg   -0.49368   -2.50001   0.38095   
 Mg4917   Mg   -0.49370   -2.83332   0.38095   
 Mg4918   Mg   -0.49370   -2.99993   0.30476   
 Mg4919   Mg   -0.49370   -2.33332   0.30477   
 Mg4920   Mg   -0.49370   -2.66671   0.30476   
 O4921    O    -0.26236   -2.16665   0.38096   
 O4922    O    -0.26237   -2.49998   0.38096   
 O4923    O    -0.26242   -2.83332   0.38095   
 O4924    O    -0.26236   -2.99997   0.30476   
 O4925    O    -0.26242   -2.33332   0.30477   
 O4926    O    -0.26237   -2.66666   0.30477   
 Mg4927   Mg   -0.26867   -2.00002   0.38096   
 Mg4928   Mg   -0.26868   -2.33333   0.38095   
 Mg4929   Mg   -0.26867   -2.66664   0.38095   
 Mg4930   Mg   -0.26869   -2.16667   0.30476   
 Mg4931   Mg   -0.26869   -2.49999   0.30477   
 Mg4932   Mg   -0.26869   -2.83334   0.30477   
 O4933    O    -1.72502   -2.99998   0.30477   
 O4934    O    -1.72495   -2.33332   0.30476   
 O4935    O    -1.72502   -2.66668   0.30476   
 Mg4936   Mg   -1.71869   -2.00001   0.38095   
 Mg4937   Mg   -1.71868   -2.33331   0.38096   
 Mg4938   Mg   -1.71869   -2.66661   0.38096   
 Mg4939   Mg   -1.71868   -2.16666   0.30477   
 Mg4940   Mg   -1.71868   -2.49997   0.30477   
 Mg4941   Mg   -1.71874   -2.83330   0.30477   
 O4942    O    -1.72500   -2.16666   0.38095   
 O4943    O    -1.72500   -2.50000   0.38095   
 O4944    O    -1.72499   -2.83333   0.38096   
 O4945    O    -1.49368   -2.16667   0.30477   
 O4946    O    -1.49368   -2.49998   0.30477   
 O4947    O    -1.49372   -2.83332   0.30478   
 O4948    O    -1.49369   -2.00005   0.38096   
 O4949    O    -1.49367   -2.33332   0.38096   
 O4950    O    -1.49369   -2.66659   0.38096   
 Mg4951   Mg   -1.49368   -2.16664   0.38096   
 Mg4952   Mg   -1.49368   -2.50001   0.38095   
 Mg4953   Mg   -1.49370   -2.83332   0.38095   
 Mg4954   Mg   -1.49370   -2.99993   0.30476   
 Mg4955   Mg   -1.49370   -2.33332   0.30477   
 Mg4956   Mg   -1.49370   -2.66671   0.30476   
 O4957    O    -1.26236   -2.16665   0.38096   
 O4958    O    -1.26237   -2.49998   0.38096   
 O4959    O    -1.26242   -2.83332   0.38095   
 O4960    O    -1.26236   -2.99997   0.30476   
 O4961    O    -1.26242   -2.33332   0.30477   
 O4962    O    -1.26237   -2.66666   0.30477   
 Mg4963   Mg   -1.26867   -2.00002   0.38096   
 Mg4964   Mg   -1.26868   -2.33333   0.38095   
 Mg4965   Mg   -1.26867   -2.66664   0.38095   
 Mg4966   Mg   -1.26869   -2.16667   0.30476   
 Mg4967   Mg   -1.26869   -2.49999   0.30477   
 Mg4968   Mg   -1.26869   -2.83334   0.30477   
 O4969    O    -2.72502   -2.99998   0.30477   
 O4970    O    -2.72495   -2.33332   0.30476   
 O4971    O    -2.72502   -2.66668   0.30476   
 Mg4972   Mg   -2.71869   -2.00001   0.38095   
 Mg4973   Mg   -2.71868   -2.33331   0.38096   
 Mg4974   Mg   -2.71869   -2.66661   0.38096   
 Mg4975   Mg   -2.71868   -2.16666   0.30477   
 Mg4976   Mg   -2.71868   -2.49997   0.30477   
 Mg4977   Mg   -2.71874   -2.83330   0.30477   
 O4978    O    -2.72500   -2.16666   0.38095   
 O4979    O    -2.72500   -2.50000   0.38095   
 O4980    O    -2.72499   -2.83333   0.38096   
 O4981    O    -2.49368   -2.16667   0.30477   
 O4982    O    -2.49368   -2.49998   0.30477   
 O4983    O    -2.49372   -2.83332   0.30478   
 O4984    O    -2.49369   -2.00005   0.38096   
 O4985    O    -2.49367   -2.33332   0.38096   
 O4986    O    -2.49369   -2.66659   0.38096   
 Mg4987   Mg   -2.49368   -2.16664   0.38096   
 Mg4988   Mg   -2.49368   -2.50001   0.38095   
 Mg4989   Mg   -2.49370   -2.83332   0.38095   
 Mg4990   Mg   -2.49370   -2.99993   0.30476   
 Mg4991   Mg   -2.49370   -2.33332   0.30477   
 Mg4992   Mg   -2.49370   -2.66671   0.30476   
 O4993    O    -2.26236   -2.16665   0.38096   
 O4994    O    -2.26237   -2.49998   0.38096   
 O4995    O    -2.26242   -2.83332   0.38095   
 O4996    O    -2.26236   -2.99997   0.30476   
 O4997    O    -2.26242   -2.33332   0.30477   
 O4998    O    -2.26237   -2.66666   0.30477   
 Mg4999   Mg   -2.26867   -2.00002   0.38096   
 Mg5000   Mg   -2.26868   -2.33333   0.38095   
 Mg5001   Mg   -2.26867   -2.66664   0.38095   
 Mg5002   Mg   -2.26869   -2.16667   0.30476   
 Mg5003   Mg   -2.26869   -2.49999   0.30477   
 Mg5004   Mg   -2.26869   -2.83334   0.30477   
 O5005    O    -3.72502   -2.99998   0.30477   
 O5006    O    -3.72495   -2.33332   0.30476   
 O5007    O    -3.72502   -2.66668   0.30476   
 Mg5008   Mg   -3.71869   -2.00001   0.38095   
 Mg5009   Mg   -3.71868   -2.33331   0.38096   
 Mg5010   Mg   -3.71869   -2.66661   0.38096   
 Mg5011   Mg   -3.71868   -2.16666   0.30477   
 Mg5012   Mg   -3.71868   -2.49997   0.30477   
 Mg5013   Mg   -3.71874   -2.83330   0.30477   
 O5014    O    -3.72500   -2.16666   0.38095   
 O5015    O    -3.72500   -2.50000   0.38095   
 O5016    O    -3.72499   -2.83333   0.38096   
 O5017    O    -3.49368   -2.16667   0.30477   
 O5018    O    -3.49368   -2.49998   0.30477   
 O5019    O    -3.49372   -2.83332   0.30478   
 O5020    O    -3.49369   -2.00005   0.38096   
 O5021    O    -3.49367   -2.33332   0.38096   
 O5022    O    -3.49369   -2.66659   0.38096   
 Mg5023   Mg   -3.49368   -2.16664   0.38096   
 Mg5024   Mg   -3.49368   -2.50001   0.38095   
 Mg5025   Mg   -3.49370   -2.83332   0.38095   
 Mg5026   Mg   -3.49370   -2.99993   0.30476   
 Mg5027   Mg   -3.49370   -2.33332   0.30477   
 Mg5028   Mg   -3.49370   -2.66671   0.30476   
 O5029    O    -3.26236   -2.16665   0.38096   
 O5030    O    -3.26237   -2.49998   0.38096   
 O5031    O    -3.26242   -2.83332   0.38095   
 O5032    O    -3.26236   -2.99997   0.30476   
 O5033    O    -3.26242   -2.33332   0.30477   
 O5034    O    -3.26237   -2.66666   0.30477   
 Mg5035   Mg   -3.26867   -2.00002   0.38096   
 Mg5036   Mg   -3.26868   -2.33333   0.38095   
 Mg5037   Mg   -3.26867   -2.66664   0.38095   
 Mg5038   Mg   -3.26869   -2.16667   0.30476   
 Mg5039   Mg   -3.26869   -2.49999   0.30477   
 Mg5040   Mg   -3.26869   -2.83334   0.30477   
 O5041    O    2.27498    -3.99998   0.30477   
 O5042    O    2.27505    -3.33332   0.30476   
 O5043    O    2.27498    -3.66668   0.30476   
 Mg5044   Mg   2.28131    -3.00001   0.38095   
 Mg5045   Mg   2.28132    -3.33331   0.38096   
 Mg5046   Mg   2.28131    -3.66661   0.38096   
 Mg5047   Mg   2.28132    -3.16666   0.30477   
 Mg5048   Mg   2.28132    -3.49997   0.30477   
 Mg5049   Mg   2.28126    -3.83330   0.30477   
 O5050    O    2.27500    -3.16666   0.38095   
 O5051    O    2.27500    -3.50000   0.38095   
 O5052    O    2.27501    -3.83333   0.38096   
 O5053    O    2.50632    -3.16667   0.30477   
 O5054    O    2.50632    -3.49998   0.30477   
 O5055    O    2.50628    -3.83332   0.30478   
 O5056    O    2.50631    -3.00005   0.38096   
 O5057    O    2.50633    -3.33332   0.38096   
 O5058    O    2.50631    -3.66659   0.38096   
 Mg5059   Mg   2.50632    -3.16664   0.38096   
 Mg5060   Mg   2.50632    -3.50001   0.38095   
 Mg5061   Mg   2.50630    -3.83332   0.38095   
 Mg5062   Mg   2.50630    -3.99993   0.30476   
 Mg5063   Mg   2.50630    -3.33332   0.30477   
 Mg5064   Mg   2.50630    -3.66671   0.30476   
 O5065    O    2.73764    -3.16665   0.38096   
 O5066    O    2.73763    -3.49998   0.38096   
 O5067    O    2.73758    -3.83332   0.38095   
 O5068    O    2.73764    -3.99997   0.30476   
 O5069    O    2.73758    -3.33332   0.30477   
 O5070    O    2.73763    -3.66666   0.30477   
 Mg5071   Mg   2.73133    -3.00002   0.38096   
 Mg5072   Mg   2.73132    -3.33333   0.38095   
 Mg5073   Mg   2.73133    -3.66664   0.38095   
 Mg5074   Mg   2.73131    -3.16667   0.30476   
 Mg5075   Mg   2.73131    -3.49999   0.30477   
 Mg5076   Mg   2.73131    -3.83334   0.30477   
 O5077    O    1.27498    -3.99998   0.30477   
 O5078    O    1.27505    -3.33332   0.30476   
 O5079    O    1.27498    -3.66668   0.30476   
 Mg5080   Mg   1.28131    -3.00001   0.38095   
 Mg5081   Mg   1.28132    -3.33331   0.38096   
 Mg5082   Mg   1.28131    -3.66661   0.38096   
 Mg5083   Mg   1.28132    -3.16666   0.30477   
 Mg5084   Mg   1.28132    -3.49997   0.30477   
 Mg5085   Mg   1.28126    -3.83330   0.30477   
 O5086    O    1.27500    -3.16666   0.38095   
 O5087    O    1.27500    -3.50000   0.38095   
 O5088    O    1.27501    -3.83333   0.38096   
 O5089    O    1.50632    -3.16667   0.30477   
 O5090    O    1.50632    -3.49998   0.30477   
 O5091    O    1.50628    -3.83332   0.30478   
 O5092    O    1.50631    -3.00005   0.38096   
 O5093    O    1.50633    -3.33332   0.38096   
 O5094    O    1.50631    -3.66659   0.38096   
 Mg5095   Mg   1.50632    -3.16664   0.38096   
 Mg5096   Mg   1.50632    -3.50001   0.38095   
 Mg5097   Mg   1.50630    -3.83332   0.38095   
 Mg5098   Mg   1.50630    -3.99993   0.30476   
 Mg5099   Mg   1.50630    -3.33332   0.30477   
 Mg5100   Mg   1.50630    -3.66671   0.30476   
 O5101    O    1.73764    -3.16665   0.38096   
 O5102    O    1.73763    -3.49998   0.38096   
 O5103    O    1.73758    -3.83332   0.38095   
 O5104    O    1.73764    -3.99997   0.30476   
 O5105    O    1.73758    -3.33332   0.30477   
 O5106    O    1.73763    -3.66666   0.30477   
 Mg5107   Mg   1.73133    -3.00002   0.38096   
 Mg5108   Mg   1.73132    -3.33333   0.38095   
 Mg5109   Mg   1.73133    -3.66664   0.38095   
 Mg5110   Mg   1.73131    -3.16667   0.30476   
 Mg5111   Mg   1.73131    -3.49999   0.30477   
 Mg5112   Mg   1.73131    -3.83334   0.30477   
 O5113    O    0.27498    -3.99998   0.30477   
 O5114    O    0.27505    -3.33332   0.30476   
 O5115    O    0.27498    -3.66668   0.30476   
 Mg5116   Mg   0.28131    -3.00001   0.38095   
 Mg5117   Mg   0.28132    -3.33331   0.38096   
 Mg5118   Mg   0.28131    -3.66661   0.38096   
 Mg5119   Mg   0.28132    -3.16666   0.30477   
 Mg5120   Mg   0.28132    -3.49997   0.30477   
 Mg5121   Mg   0.28126    -3.83330   0.30477   
 O5122    O    0.27500    -3.16666   0.38095   
 O5123    O    0.27500    -3.50000   0.38095   
 O5124    O    0.27501    -3.83333   0.38096   
 O5125    O    0.50632    -3.16667   0.30477   
 O5126    O    0.50632    -3.49998   0.30477   
 O5127    O    0.50628    -3.83332   0.30478   
 O5128    O    0.50631    -3.00005   0.38096   
 O5129    O    0.50633    -3.33332   0.38096   
 O5130    O    0.50631    -3.66659   0.38096   
 Mg5131   Mg   0.50632    -3.16664   0.38096   
 Mg5132   Mg   0.50632    -3.50001   0.38095   
 Mg5133   Mg   0.50630    -3.83332   0.38095   
 Mg5134   Mg   0.50630    -3.99993   0.30476   
 Mg5135   Mg   0.50630    -3.33332   0.30477   
 Mg5136   Mg   0.50630    -3.66671   0.30476   
 O5137    O    0.73764    -3.16665   0.38096   
 O5138    O    0.73763    -3.49998   0.38096   
 O5139    O    0.73758    -3.83332   0.38095   
 O5140    O    0.73764    -3.99997   0.30476   
 O5141    O    0.73758    -3.33332   0.30477   
 O5142    O    0.73763    -3.66666   0.30477   
 Mg5143   Mg   0.73133    -3.00002   0.38096   
 Mg5144   Mg   0.73132    -3.33333   0.38095   
 Mg5145   Mg   0.73133    -3.66664   0.38095   
 Mg5146   Mg   0.73131    -3.16667   0.30476   
 Mg5147   Mg   0.73131    -3.49999   0.30477   
 Mg5148   Mg   0.73131    -3.83334   0.30477   
 O5149    O    -0.72502   -3.99998   0.30477   
 O5150    O    -0.72495   -3.33332   0.30476   
 O5151    O    -0.72502   -3.66668   0.30476   
 Mg5152   Mg   -0.71869   -3.00001   0.38095   
 Mg5153   Mg   -0.71868   -3.33331   0.38096   
 Mg5154   Mg   -0.71869   -3.66661   0.38096   
 Mg5155   Mg   -0.71868   -3.16666   0.30477   
 Mg5156   Mg   -0.71868   -3.49997   0.30477   
 Mg5157   Mg   -0.71874   -3.83330   0.30477   
 O5158    O    -0.72500   -3.16666   0.38095   
 O5159    O    -0.72500   -3.50000   0.38095   
 O5160    O    -0.72499   -3.83333   0.38096   
 O5161    O    -0.49368   -3.16667   0.30477   
 O5162    O    -0.49368   -3.49998   0.30477   
 O5163    O    -0.49372   -3.83332   0.30478   
 O5164    O    -0.49369   -3.00005   0.38096   
 O5165    O    -0.49367   -3.33332   0.38096   
 O5166    O    -0.49369   -3.66659   0.38096   
 Mg5167   Mg   -0.49368   -3.16664   0.38096   
 Mg5168   Mg   -0.49368   -3.50001   0.38095   
 Mg5169   Mg   -0.49370   -3.83332   0.38095   
 Mg5170   Mg   -0.49370   -3.99993   0.30476   
 Mg5171   Mg   -0.49370   -3.33332   0.30477   
 Mg5172   Mg   -0.49370   -3.66671   0.30476   
 O5173    O    -0.26236   -3.16665   0.38096   
 O5174    O    -0.26237   -3.49998   0.38096   
 O5175    O    -0.26242   -3.83332   0.38095   
 O5176    O    -0.26236   -3.99997   0.30476   
 O5177    O    -0.26242   -3.33332   0.30477   
 O5178    O    -0.26237   -3.66666   0.30477   
 Mg5179   Mg   -0.26867   -3.00002   0.38096   
 Mg5180   Mg   -0.26868   -3.33333   0.38095   
 Mg5181   Mg   -0.26867   -3.66664   0.38095   
 Mg5182   Mg   -0.26869   -3.16667   0.30476   
 Mg5183   Mg   -0.26869   -3.49999   0.30477   
 Mg5184   Mg   -0.26869   -3.83334   0.30477   
 O5185    O    -1.72502   -3.99998   0.30477   
 O5186    O    -1.72495   -3.33332   0.30476   
 O5187    O    -1.72502   -3.66668   0.30476   
 Mg5188   Mg   -1.71869   -3.00001   0.38095   
 Mg5189   Mg   -1.71868   -3.33331   0.38096   
 Mg5190   Mg   -1.71869   -3.66661   0.38096   
 Mg5191   Mg   -1.71868   -3.16666   0.30477   
 Mg5192   Mg   -1.71868   -3.49997   0.30477   
 Mg5193   Mg   -1.71874   -3.83330   0.30477   
 O5194    O    -1.72500   -3.16666   0.38095   
 O5195    O    -1.72500   -3.50000   0.38095   
 O5196    O    -1.72499   -3.83333   0.38096   
 O5197    O    -1.49368   -3.16667   0.30477   
 O5198    O    -1.49368   -3.49998   0.30477   
 O5199    O    -1.49372   -3.83332   0.30478   
 O5200    O    -1.49369   -3.00005   0.38096   
 O5201    O    -1.49367   -3.33332   0.38096   
 O5202    O    -1.49369   -3.66659   0.38096   
 Mg5203   Mg   -1.49368   -3.16664   0.38096   
 Mg5204   Mg   -1.49368   -3.50001   0.38095   
 Mg5205   Mg   -1.49370   -3.83332   0.38095   
 Mg5206   Mg   -1.49370   -3.99993   0.30476   
 Mg5207   Mg   -1.49370   -3.33332   0.30477   
 Mg5208   Mg   -1.49370   -3.66671   0.30476   
 O5209    O    -1.26236   -3.16665   0.38096   
 O5210    O    -1.26237   -3.49998   0.38096   
 O5211    O    -1.26242   -3.83332   0.38095   
 O5212    O    -1.26236   -3.99997   0.30476   
 O5213    O    -1.26242   -3.33332   0.30477   
 O5214    O    -1.26237   -3.66666   0.30477   
 Mg5215   Mg   -1.26867   -3.00002   0.38096   
 Mg5216   Mg   -1.26868   -3.33333   0.38095   
 Mg5217   Mg   -1.26867   -3.66664   0.38095   
 Mg5218   Mg   -1.26869   -3.16667   0.30476   
 Mg5219   Mg   -1.26869   -3.49999   0.30477   
 Mg5220   Mg   -1.26869   -3.83334   0.30477   
 O5221    O    -2.72502   -3.99998   0.30477   
 O5222    O    -2.72495   -3.33332   0.30476   
 O5223    O    -2.72502   -3.66668   0.30476   
 Mg5224   Mg   -2.71869   -3.00001   0.38095   
 Mg5225   Mg   -2.71868   -3.33331   0.38096   
 Mg5226   Mg   -2.71869   -3.66661   0.38096   
 Mg5227   Mg   -2.71868   -3.16666   0.30477   
 Mg5228   Mg   -2.71868   -3.49997   0.30477   
 Mg5229   Mg   -2.71874   -3.83330   0.30477   
 O5230    O    -2.72500   -3.16666   0.38095   
 O5231    O    -2.72500   -3.50000   0.38095   
 O5232    O    -2.72499   -3.83333   0.38096   
 O5233    O    -2.49368   -3.16667   0.30477   
 O5234    O    -2.49368   -3.49998   0.30477   
 O5235    O    -2.49372   -3.83332   0.30478   
 O5236    O    -2.49369   -3.00005   0.38096   
 O5237    O    -2.49367   -3.33332   0.38096   
 O5238    O    -2.49369   -3.66659   0.38096   
 Mg5239   Mg   -2.49368   -3.16664   0.38096   
 Mg5240   Mg   -2.49368   -3.50001   0.38095   
 Mg5241   Mg   -2.49370   -3.83332   0.38095   
 Mg5242   Mg   -2.49370   -3.99993   0.30476   
 Mg5243   Mg   -2.49370   -3.33332   0.30477   
 Mg5244   Mg   -2.49370   -3.66671   0.30476   
 O5245    O    -2.26236   -3.16665   0.38096   
 O5246    O    -2.26237   -3.49998   0.38096   
 O5247    O    -2.26242   -3.83332   0.38095   
 O5248    O    -2.26236   -3.99997   0.30476   
 O5249    O    -2.26242   -3.33332   0.30477   
 O5250    O    -2.26237   -3.66666   0.30477   
 Mg5251   Mg   -2.26867   -3.00002   0.38096   
 Mg5252   Mg   -2.26868   -3.33333   0.38095   
 Mg5253   Mg   -2.26867   -3.66664   0.38095   
 Mg5254   Mg   -2.26869   -3.16667   0.30476   
 Mg5255   Mg   -2.26869   -3.49999   0.30477   
 Mg5256   Mg   -2.26869   -3.83334   0.30477   
 O5257    O    -3.72502   -3.99998   0.30477   
 O5258    O    -3.72495   -3.33332   0.30476   
 O5259    O    -3.72502   -3.66668   0.30476   
 Mg5260   Mg   -3.71869   -3.00001   0.38095   
 Mg5261   Mg   -3.71868   -3.33331   0.38096   
 Mg5262   Mg   -3.71869   -3.66661   0.38096   
 Mg5263   Mg   -3.71868   -3.16666   0.30477   
 Mg5264   Mg   -3.71868   -3.49997   0.30477   
 Mg5265   Mg   -3.71874   -3.83330   0.30477   
 O5266    O    -3.72500   -3.16666   0.38095   
 O5267    O    -3.72500   -3.50000   0.38095   
 O5268    O    -3.72499   -3.83333   0.38096   
 O5269    O    -3.49368   -3.16667   0.30477   
 O5270    O    -3.49368   -3.49998   0.30477   
 O5271    O    -3.49372   -3.83332   0.30478   
 O5272    O    -3.49369   -3.00005   0.38096   
 O5273    O    -3.49367   -3.33332   0.38096   
 O5274    O    -3.49369   -3.66659   0.38096   
 Mg5275   Mg   -3.49368   -3.16664   0.38096   
 Mg5276   Mg   -3.49368   -3.50001   0.38095   
 Mg5277   Mg   -3.49370   -3.83332   0.38095   
 Mg5278   Mg   -3.49370   -3.99993   0.30476   
 Mg5279   Mg   -3.49370   -3.33332   0.30477   
 Mg5280   Mg   -3.49370   -3.66671   0.30476   
 O5281    O    -3.26236   -3.16665   0.38096   
 O5282    O    -3.26237   -3.49998   0.38096   
 O5283    O    -3.26242   -3.83332   0.38095   
 O5284    O    -3.26236   -3.99997   0.30476   
 O5285    O    -3.26242   -3.33332   0.30477   
 O5286    O    -3.26237   -3.66666   0.30477   
 Mg5287   Mg   -3.26867   -3.00002   0.38096   
 Mg5288   Mg   -3.26868   -3.33333   0.38095   
 Mg5289   Mg   -3.26867   -3.66664   0.38095   
 Mg5290   Mg   -3.26869   -3.16667   0.30476   
 Mg5291   Mg   -3.26869   -3.49999   0.30477   
 Mg5292   Mg   -3.26869   -3.83334   0.30477   
