data_generated
_cell_length_a               36.53196
_cell_length_b               189.82566
_cell_length_c               14.97137
_cell_angle_alpha            90.00000
_cell_angle_beta             90.00000
_cell_angle_gamma            90.00000
_space_group_name_H-M_alt    'P 1'
loop_
 _atom_site_label
 _atom_site_type_symbol
 _atom_site_fract_x
 _atom_site_fract_y
 _atom_site_fract_z
 Zn1      Zn   -0.95660   -0.55395   0.42894   
 Zn2      Zn   -0.70660   -0.61876   1.09306   
 Zn3      Zn   -0.54340   -0.55395   0.42894   
 Zn4      Zn   -0.79340   -0.52617   1.42511   
 Zn5      Zn   -1.04340   -0.55395   0.42894   
 Zn6      Zn   -0.75000   -0.50039   -0.11989  
 Zn7      Zn   -0.50000   -0.56520   0.54423   
 Zn8      Zn   -1.00000   -0.56520   0.54423   
 Zn9      Zn   -0.75000   -0.57690   -0.39430  
 Zn10     Zn   -1.00000   -0.54913   0.60188   
 Zn11     Zn   -0.75000   -0.59298   -0.45195  
 Zn12     Zn   -0.95660   -0.64654   0.09688   
 Zn13     Zn   -0.75000   -0.48431   -0.06224  
 Zn14     Zn   -0.70660   -0.52617   1.42511   
 Zn15     Zn   -0.79340   -0.61876   1.09306   
 Zn16     Zn   -1.00000   -0.64172   0.26982   
 Zn17     Zn   -1.04340   -0.53864   -0.25709  
 Zn18     Zn   -0.95660   -0.63124   -0.58915  
 Zn19     Zn   -0.70660   -0.51087   0.73908   
 Zn20     Zn   -0.95660   -0.53864   -0.25709  
 Zn21     Zn   -0.75000   -0.60828   0.23409   
 Zn22     Zn   -0.75000   -0.49961   0.62379   
 Zn23     Zn   -1.00000   -0.52739   -0.37238  
 Zn24     Zn   -0.70660   -0.60346   0.40702   
 Zn25     Zn   -0.75000   -0.51569   0.56615   
 Zn26     Zn   -0.50000   -0.54347   -0.43003  
 Zn27     Zn   -0.54340   -0.53864   -0.25709  
 Zn28     Zn   -0.79340   -0.51087   0.73908   
 Zn29     Zn   -0.79340   -0.60346   0.40702   
 Zn30     Zn   -0.75000   -0.59221   0.29173   
 Zn31     Zn   -1.00000   -0.54347   -0.43003  
 Zn32     Zn   -1.00000   -0.61999   -0.70444  
 O33      O    -1.00000   -0.55556   0.50100   
 O34      O    -0.50000   -0.55556   0.50100   
 O35      O    -0.75000   -0.52778   1.49717   
 O36      O    -0.75000   -0.58333   -0.49518  
 O37      O    -1.00000   -0.53704   -0.32915  
 O38      O    -1.00000   -0.62963   -0.66121  
 O39      O    -0.75000   -0.50926   0.66703   
 O40      O    -0.75000   -0.60185   0.33497   
 O41      O    -0.96810   -0.55126   0.30840   
 C42      C    -0.96710   -0.54729   0.13058   
 H43      H    -0.94510   -0.54796   0.16030   
 O44      O    -0.71810   -0.61607   0.97252   
 C45      C    -0.71710   -0.61211   0.79470   
 H46      H    -0.69510   -0.61277   0.82442   
 O47      O    -0.53190   -0.55126   0.30840   
 C48      C    -0.53290   -0.54729   0.13058   
 H49      H    -0.55490   -0.54796   0.16030   
 O50      O    -0.78190   -0.52348   1.30458   
 C51      C    -0.78290   -0.51951   1.12676   
 H52      H    -0.80490   -0.52018   1.15648   
 O53      O    -1.03190   -0.55126   0.30840   
 C54      C    -1.03290   -0.54729   0.13058   
 H55      H    -1.05490   -0.54796   0.16030   
 O56      O    -0.75000   -0.50094   0.00829   
 C57      C    -0.75000   -0.50510   0.18544   
 H58      H    -0.75000   -0.50851   0.14111   
 O59      O    -0.50000   -0.56576   0.67240   
 C60      C    -0.50000   -0.56991   0.84956   
 H61      H    -0.50000   -0.57332   0.80523   
 O62      O    -1.00000   -0.56576   0.67240   
 C63      C    -1.00000   -0.56991   0.84956   
 H64      H    -1.00000   -0.57332   0.80523   
 O65      O    -0.75000   -0.58172   -0.28140  
 C66      C    -0.75000   -0.58550   -0.10292  
 H67      H    -0.75000   -0.58077   -0.11803  
 O68      O    -1.00000   -0.55394   0.71478   
 C69      C    -1.00000   -0.55773   0.89326   
 H70      H    -1.00000   -0.55299   0.87815   
 O71      O    -1.07395   -0.56216   0.42011   
 C72      C    -1.12800   -0.57195   0.38322   
 H73      H    -1.13005   -0.56744   0.35994   
 O74      O    -0.82395   -0.49735   -0.24401  
 C75      C    -0.87800   -0.50713   -0.28090  
 H76      H    -0.88005   -0.50262   -0.30418  
 O77      O    -0.79205   -0.59821   -0.49133  
 C78      C    -0.84510   -0.60826   -0.52556  
 H79      H    -0.82515   -0.60945   -0.49040  
 O80      O    -1.04205   -0.57043   0.50485   
 C81      C    -1.09510   -0.58048   0.47061   
 H82      H    -1.07515   -0.58167   0.50578   
 O83      O    -0.54205   -0.57043   0.50485   
 C84      C    -0.59510   -0.58048   0.47061   
 H85      H    -0.57515   -0.58167   0.50578   
 O86      O    -0.92605   -0.63918   0.14390   
 C87      C    -0.87200   -0.62932   0.17747   
 H88      H    -0.86995   -0.63220   0.12770   
 O89      O    -0.67605   -0.61140   1.14008   
 C90      C    -0.62200   -0.56450   -0.48665  
 H91      H    -0.61995   -0.56738   -0.53642  
 O92      O    -0.92605   -0.54659   0.47596   
 C93      C    -0.87200   -0.53673   0.50953   
 H94      H    -0.86995   -0.53961   0.45975   
 O95      O    -1.20795   -0.57082   -0.39310  
 C96      C    -1.15490   -0.56085   -0.35555  
 H97      H    -1.17485   -0.56128   -0.31766  
 O98      O    -0.95795   -0.54304   0.60307   
 C99      C    -0.90490   -0.53307   0.64063   
 H100     H    -0.92485   -0.53351   0.67851   
 O101     O    -0.95795   -0.57043   0.50485   
 C102     C    -0.90490   -0.58048   0.47061   
 H103     H    -0.92485   -0.58167   0.50578   
 O104     O    -1.20795   -0.50562   -0.15927  
 C105     C    -1.15490   -0.51566   -0.19350  
 H106     H    -1.17485   -0.51686   -0.15834  
 O107     O    -0.67605   -0.53438   1.41628   
 C108     C    -0.62200   -0.54417   1.37939   
 H109     H    -0.61995   -0.53966   1.35611   
 O110     O    -0.92605   -0.46957   0.75217   
 C111     C    -0.87200   -0.47936   0.71527   
 H112     H    -0.86995   -0.47485   0.69200   
 O113     O    -0.92605   -0.56216   0.42011   
 C114     C    -0.87200   -0.57195   0.38322   
 H115     H    -0.86995   -0.56744   0.35994   
 O116     O    -0.82395   -0.57436   -0.52022  
 C117     C    -0.87800   -0.56450   -0.48665  
 H118     H    -0.88005   -0.56738   -0.53642  
 O119     O    -1.07395   -0.54659   0.47596   
 C120     C    -1.12800   -0.53673   0.50953   
 H121     H    -1.13005   -0.53961   0.45975   
 O122     O    -0.54205   -0.54304   0.60307   
 C123     C    -0.59510   -0.53307   0.64063   
 H124     H    -0.57515   -0.53351   0.67851   
 O125     O    -0.79205   -0.47823   -0.06105  
 C126     C    -0.84510   -0.50529   1.63680   
 H127     H    -1.03348   0.48179    -0.38070  
 O128     O    -1.04205   -0.54304   0.60307   
 C129     C    -1.09510   -0.53307   0.64063   
 H130     H    -1.07515   -0.53351   0.67851   
 O131     O    -1.03190   -0.54133   -0.13656  
 C132     C    -1.03290   -0.54530   0.04126   
 H133     H    -1.05490   -0.54464   0.01154   
 O134     O    -0.78190   -0.60615   0.52756   
 C135     C    -0.78290   -0.61011   0.70538   
 H136     H    -0.80490   -0.60945   0.67566   
 O137     O    -0.46810   -0.54133   -0.13656  
 C138     C    -0.46710   -0.54530   0.04126   
 H139     H    -0.44510   -0.54464   0.01154   
 O140     O    -0.71810   -0.51356   0.85962   
 C141     C    -0.71710   -0.51752   1.03744   
 H142     H    -0.69510   -0.51686   1.00772   
 O143     O    -0.96810   -0.54133   -0.13656  
 C144     C    -0.96710   -0.54530   0.04126   
 H145     H    -0.94510   -0.54464   0.01154   
 O146     O    -0.75000   -0.60346   0.12119   
 C147     C    -0.75000   -0.59968   -0.05729  
 H148     H    -0.75000   -0.60442   -0.04219  
 O149     O    -1.00000   -0.57569   1.11736   
 C150     C    -1.00000   -0.57190   0.93888   
 H151     H    -1.00000   -0.57664   0.95399   
 O152     O    -0.75000   -0.49906   0.49562   
 C153     C    -0.75000   -0.49490   0.31846   
 H154     H    -0.75000   -0.49149   0.36279   
 O155     O    -0.50000   -0.56387   1.15973   
 C156     C    -0.50000   -0.55972   0.98258   
 H157     H    -0.50000   -0.55631   1.02691   
 O158     O    -1.00000   -0.56387   1.15973   
 C159     C    -1.00000   -0.55972   0.98258   
 H160     H    -1.00000   -0.55631   1.02691   
 O161     O    -0.92605   -0.54601   -0.30411  
 C162     C    -0.87200   -0.55587   -0.33768  
 H163     H    -0.86995   -0.55299   -0.28791  
 O164     O    -1.17605   -0.51823   0.69206   
 C165     C    -1.12200   -0.52809   0.65849   
 H166     H    -1.11995   -0.52521   0.70827   
 O167     O    -0.70795   -0.52177   0.56495   
 C168     C    -0.65490   -0.53174   0.52739   
 H169     H    -0.67485   -0.53131   0.48951   
 O170     O    -0.95795   -0.49399   1.56113   
 C171     C    -0.90490   -0.50397   1.52357   
 H172     H    -0.92485   -0.50353   1.48568   
 O173     O    -1.20795   -0.52177   0.56495   
 C174     C    -1.15490   -0.53174   0.52739   
 H175     H    -1.17485   -0.53131   0.48951   
 O176     O    -0.57395   -0.56747   1.41203   
 C177     C    -0.62800   -0.55768   1.44892   
 H178     H    -0.83838   0.42533    -0.58319  
 O179     O    -0.82395   -0.50265   0.74791   
 C180     C    -0.87800   -0.49287   0.78481   
 H181     H    -0.88005   -0.49738   0.80808   
 O182     O    -0.82395   -0.59525   0.41586   
 C183     C    -0.87800   -0.58546   0.45275   
 H184     H    -0.88005   -0.58997   0.47603   
 O185     O    -0.79205   -0.58698   0.33112   
 C186     C    -0.84510   -0.57693   0.36535   
 H187     H    -0.82515   -0.57574   0.33019   
 O188     O    -1.04205   -0.52216   -0.33300  
 C189     C    -1.09510   -0.51211   -0.29877  
 H190     H    -1.07515   -0.51092   -0.33393  
 O191     O    -1.04205   -0.54955   -0.43122  
 C192     C    -1.09510   -0.55952   -0.46878  
 H193     H    -1.07515   -0.55909   -0.50667  
 O194     O    -0.79205   -0.52177   0.56495   
 C195     C    -0.84510   -0.53174   0.52739   
 H196     H    -0.82515   -0.53131   0.48951   
 O197     O    -0.82395   -0.61082   0.36000   
 C198     C    -0.87800   -0.62068   0.32643   
 H199     H    -0.88005   -0.61780   0.37621   
 O200     O    -0.57395   -0.54601   -0.30411  
 C201     C    -0.62800   -0.55587   -0.33768  
 H202     H    -0.63005   -0.55299   -0.28791  
 O203     O    -0.82395   -0.51823   0.69206   
 C204     C    -0.87800   -0.52809   0.65849   
 H205     H    -0.88005   -0.52521   0.70827   
 O206     O    -1.17605   -0.59525   0.41586   
 C207     C    -1.12200   -0.58546   0.45275   
 H208     H    -1.11995   -0.58997   0.47603   
 O209     O    -0.92605   -0.53043   -0.24826  
 C210     C    -0.87200   -0.52064   -0.21137  
 H211     H    -0.86995   -0.52515   -0.18809  
 O212     O    -0.95795   -0.61475   -0.66506  
 C213     C    -0.90490   -0.60471   -0.63083  
 H214     H    -0.92485   -0.60351   -0.66599  
 O215     O    -1.20795   -0.58698   0.33112   
 C216     C    -1.15490   -0.57693   0.36535   
 H217     H    -1.17485   -0.57574   0.33019   
 O218     O    -0.70795   -0.58698   0.33112   
 C219     C    -0.65490   -0.57693   0.36535   
 H220     H    -0.67485   -0.57574   0.33019   
 O221     O    -0.53190   -0.54133   -0.13656  
 C222     C    -0.53290   -0.54530   0.04126   
 H223     H    -0.55490   -0.54464   0.01154   
 O224     O    -0.78190   -0.51356   0.85962   
 C225     C    -0.78290   -0.51752   1.03744   
 H226     H    -0.80490   -0.51686   1.00772   
 O227     O    -0.71810   -0.60615   0.52756   
 C228     C    -0.71710   -0.61011   0.70538   
 H229     H    -0.69510   -0.60945   0.67566   
 O230     O    -0.75000   -0.59165   0.16356   
 C231     C    -0.75000   -0.58750   -0.01359  
 H232     H    -0.75000   -0.58409   0.03073   
 O233     O    -0.75000   -0.51087   0.45325   
 C234     C    -0.75000   -0.50709   0.27476   
 H235     H    -0.75000   -0.51183   0.28987   
 O236     O    -0.50000   -0.57569   1.11736   
 C237     C    -0.50000   -0.57190   0.93888   
 H238     H    -0.50000   -0.57664   0.95399   
 O239     O    -0.92605   -0.62302   -0.58032  
 C240     C    -0.87200   -0.61324   -0.54343  
 H241     H    -0.86995   -0.61775   -0.52015  
 O242     O    -0.67605   -0.59525   0.41586   
 C243     C    -0.62200   -0.58546   0.45275   
 H244     H    -0.61995   -0.58997   0.47603   
 O245     O    -0.95795   -0.52216   -0.33300  
 C246     C    -0.90490   -0.51211   -0.29877  
 H247     H    -0.92485   -0.51092   -0.33393  
 O248     O    -1.07395   -0.54601   -0.30411  
 C249     C    -1.12800   -0.55587   -0.33768  
 H250     H    -1.13005   -0.55299   -0.28791  
 O251     O    -0.79205   -0.61436   0.23289   
 C252     C    -0.84510   -0.62434   0.19534   
 H253     H    -0.82515   -0.62390   0.15745   
 O254     O    -0.54205   -0.54955   -0.43122  
 C255     C    -0.59510   -0.55952   -0.46878  
 H256     H    -0.57515   -0.55909   -0.50667  
 O257     O    -0.54205   -0.55920   1.32729   
 C258     C    -0.59510   -0.54915   1.36153   
 H259     H    -0.57515   -0.54796   1.32636   
 O260     O    -0.79205   -0.49438   0.66317   
 C261     C    -0.84510   -0.48434   0.69741   
 H262     H    -0.82515   -0.48314   0.66224   
 O263     O    -1.07395   -0.53043   -0.24826  
 C264     C    -1.12800   -0.52064   -0.21137  
 H265     H    -1.13005   -0.52515   -0.18809  
 O266     O    -0.67605   -0.51823   0.69206   
 C267     C    -0.62200   -0.52809   0.65849   
 H268     H    -0.61995   -0.52521   0.70827   
 O269     O    -0.92605   -0.49045   1.68824   
 C270     C    -0.87200   -0.50031   1.65467   
 H271     H    -0.86995   -0.49743   1.70444   
 O272     O    -0.95795   -0.54955   -0.43122  
 C273     C    -0.90490   -0.55952   -0.46878  
 H274     H    -0.92485   -0.55909   -0.50667  
 O275     O    -0.96810   -0.64385   -0.02366  
 C276     C    -0.46710   -0.54729   0.13058   
 H277     H    -0.44510   -0.54796   0.16030   
 O278     O    -0.71810   -0.52348   1.30458   
 C279     C    -0.71710   -0.51951   1.12676   
 H280     H    -0.69510   -0.52018   1.15648   
 O281     O    -0.78190   -0.61607   0.97252   
 C282     C    -0.78290   -0.61211   0.79470   
 H283     H    -0.80490   -0.61277   0.82442   
 O284     O    -0.75000   -0.48913   0.05066   
 C285     C    -0.75000   -0.49291   0.22914   
 H286     H    -0.75000   -0.48817   0.21403   
 O287     O    -1.00000   -0.64654   0.38272   
 C288     C    -0.50000   -0.55773   0.89326   
 H289     H    -0.50000   -0.55299   0.87815   
 O290     O    -0.75000   -0.59354   -0.32377  
 C291     C    -0.75000   -0.59769   -0.14662  
 H292     H    -0.75000   -0.60110   -0.19095  
 O293     O    -0.57395   -0.54659   0.47596   
 C294     C    -0.62800   -0.53673   0.50953   
 H295     H    -0.63005   -0.53961   0.45975   
 O296     O    -0.82395   -0.51881   1.47213   
 C297     C    -0.87800   -0.50895   1.50571   
 H298     H    -0.88005   -0.51183   1.45593   
 O299     O    -0.79205   -0.57082   -0.39310  
 C300     C    -0.84510   -0.56085   -0.35555  
 H301     H    -0.82515   -0.56128   -0.31766  
 O302     O    -1.17605   -0.49735   -0.24401  
 C303     C    -1.12200   -0.50713   -0.28090  
 H304     H    -1.11995   -0.50262   -0.30418  
 O305     O    -0.70795   -0.50562   -0.15927  
 C306     C    -0.65490   -0.55270   1.46679   
 H307     H    -0.67485   -0.55389   1.50195   
 O308     O    -0.95795   -0.47784   0.83691   
 C309     C    -0.90490   -0.48789   0.80267   
 H310     H    -0.92485   -0.48908   0.83784   
 O311     O    -0.95795   -0.63564   0.27101   
 C312     C    -0.90490   -0.62566   0.30857   
 H313     H    -0.92485   -0.62610   0.34646   
 O314     O    -0.70795   -0.57082   -0.39310  
 C315     C    -0.65490   -0.56085   -0.35555  
 H316     H    -0.67485   -0.56128   -0.31766  
 O317     O    -1.17605   -0.57436   -0.52022  
 C318     C    -1.12200   -0.56450   -0.48665  
 H319     H    -1.11995   -0.56738   -0.53642  
 O320     O    -0.82395   -0.62698   1.08422   
 C321     C    -0.87800   -0.59973   -0.61296  
 H322     H    -0.88005   -0.59522   -0.63624  
 O323     O    -0.57395   -0.56216   0.42011   
 C324     C    -0.62800   -0.57195   0.38322   
 H325     H    -0.63005   -0.56744   0.35994   
 O326     O    -0.79205   -0.50562   -0.15927  
 C327     C    -0.84510   -0.51566   -0.19350  
 H328     H    -0.82515   -0.51686   -0.15834  
 C329     C    -1.00000   -0.55042   0.27071   
 C330     C    -1.00000   -0.54829   0.17525   
 C331     C    -0.75000   -0.61523   0.93483   
 C332     C    -0.75000   -0.61310   0.83936   
 C333     C    -0.50000   -0.55042   0.27071   
 C334     C    -0.50000   -0.54829   0.17525   
 C335     C    -0.75000   -0.52264   1.26689   
 C336     C    -0.75000   -0.52051   1.17142   
 C337     C    -0.75000   -0.49588   0.06716   
 C338     C    -0.75000   -0.49801   0.16263   
 C339     C    -0.50000   -0.56069   0.73128   
 C340     C    -0.50000   -0.56282   0.82675   
 C341     C    -1.00000   -0.56069   0.73128   
 C342     C    -1.00000   -0.56282   0.82675   
 C343     C    -0.75000   -0.58847   -0.26490  
 C344     C    -0.75000   -0.59060   -0.16943  
 C345     C    -1.06935   -0.56840   0.45494   
 C346     C    -1.09810   -0.57372   0.43585   
 C347     C    -0.81935   -0.50358   -0.20918  
 C348     C    -0.84810   -0.50891   -0.22827  
 C349     C    -0.81935   -0.59618   -0.54124  
 C350     C    -0.84810   -0.60150   -0.56033  
 C351     C    -0.56935   -0.56840   0.45494   
 C352     C    -0.59810   -0.57372   0.43585   
 C353     C    -0.93065   -0.63531   0.21499   
 C354     C    -0.90190   -0.62998   0.23409   
 C355     C    -0.68065   -0.57049   -0.44912  
 C356     C    -0.65190   -0.56517   -0.43003  
 C357     C    -0.93065   -0.54271   0.54705   
 C358     C    -0.90190   -0.53739   0.56615   
 C359     C    -1.18065   -0.57049   -0.44912  
 C360     C    -1.15190   -0.56517   -0.43003  
 C361     C    -0.93065   -0.56840   0.45494   
 C362     C    -0.90190   -0.57372   0.43585   
 C363     C    -1.18065   -0.50358   -0.20918  
 C364     C    -1.15190   -0.50891   -0.22827  
 C365     C    -0.68065   -0.54062   1.45112   
 C366     C    -0.65190   -0.54594   1.43202   
 C367     C    -0.93065   -0.47581   0.78700   
 C368     C    -0.90190   -0.48113   0.76790   
 C369     C    -0.81935   -0.57049   -0.44912  
 C370     C    -0.84810   -0.56517   -0.43003  
 C371     C    -1.06935   -0.54271   0.54705   
 C372     C    -1.09810   -0.53739   0.56615   
 C373     C    -0.56935   -0.54271   0.54705   
 C374     C    -0.59810   -0.53739   0.56615   
 C375     C    -0.81935   -0.51494   1.54323   
 C376     C    -0.84810   -0.50961   1.56232   
 C377     C    -1.00000   -0.54217   -0.09887  
 C378     C    -1.00000   -0.54430   -0.00340  
 C379     C    -0.75000   -0.60699   0.56525   
 C380     C    -0.75000   -0.60912   0.66072   
 C381     C    -0.50000   -0.54217   -0.09887  
 C382     C    -0.50000   -0.54430   -0.00340  
 C383     C    -0.75000   -0.51440   0.89731   
 C384     C    -0.75000   -0.51653   0.99277   
 C385     C    -0.75000   -0.59671   0.10468   
 C386     C    -0.75000   -0.59459   0.00922   
 C387     C    -1.00000   -0.56894   1.10086   
 C388     C    -1.00000   -0.56681   1.00539   
 C389     C    -0.75000   -0.50412   0.43674   
 C390     C    -0.75000   -0.50199   0.34128   
 C391     C    -0.50000   -0.56894   1.10086   
 C392     C    -0.50000   -0.56681   1.00539   
 C393     C    -0.93065   -0.54988   -0.37521  
 C394     C    -0.90190   -0.55520   -0.39430  
 C395     C    -1.18065   -0.52210   0.62097   
 C396     C    -1.15190   -0.52743   0.60188   
 C397     C    -0.68065   -0.52210   0.62097   
 C398     C    -0.65190   -0.52743   0.60188   
 C399     C    -0.93065   -0.49432   1.61714   
 C400     C    -0.90190   -0.49965   1.59805   
 C401     C    -0.56935   -0.56123   1.37720   
 C402     C    -0.59810   -0.55591   1.39629   
 C403     C    -0.81935   -0.49642   0.71308   
 C404     C    -0.84810   -0.49109   0.73218   
 C405     C    -0.81935   -0.58901   0.38102   
 C406     C    -0.84810   -0.58369   0.40012   
 C407     C    -1.06935   -0.52419   -0.28309  
 C408     C    -1.09810   -0.51887   -0.26400  
 C409     C    -1.06935   -0.54988   -0.37521  
 C410     C    -1.09810   -0.55520   -0.39430  
 C411     C    -0.81935   -0.52210   0.62097   
 C412     C    -0.84810   -0.52743   0.60188   
 C413     C    -0.81935   -0.61469   0.28891   
 C414     C    -0.84810   -0.62002   0.26982   
 C415     C    -0.56935   -0.54988   -0.37521  
 C416     C    -0.59810   -0.55520   -0.39430  
 C417     C    -1.18065   -0.58901   0.38102   
 C418     C    -1.15190   -0.58369   0.40012   
 C419     C    -0.93065   -0.52419   -0.28309  
 C420     C    -0.90190   -0.51887   -0.26400  
 C421     C    -0.93065   -0.61679   -0.61515  
 C422     C    -0.90190   -0.61146   -0.59606  
 C423     C    -0.68065   -0.58901   0.38102   
 C424     C    -0.65190   -0.58369   0.40012   
 Zn425    Zn   -3.45660   -0.05395   0.42894   
 Zn426    Zn   -3.20660   -0.11876   1.09306   
 Zn427    Zn   -3.04340   -0.05395   0.42894   
 Zn428    Zn   -3.29340   -0.02617   1.42511   
 Zn429    Zn   -3.54340   -0.05395   0.42894   
 Zn430    Zn   -3.25000   -0.00039   -0.11989  
 Zn431    Zn   -3.00000   -0.06520   0.54423   
 Zn432    Zn   -3.50000   -0.06520   0.54423   
 Zn433    Zn   -3.25000   -0.07690   -0.39430  
 Zn434    Zn   -3.50000   -0.04913   0.60188   
 Zn435    Zn   -3.25000   -0.09298   -0.45195  
 Zn436    Zn   -3.45660   -0.14654   0.09688   
 Zn437    Zn   -3.25000   0.01569    -0.06224  
 Zn438    Zn   -3.20660   -0.02617   1.42511   
 Zn439    Zn   -3.29340   -0.11876   1.09306   
 Zn440    Zn   -3.50000   -0.14172   0.26982   
 Zn441    Zn   -3.54340   -0.03864   -0.25709  
 Zn442    Zn   -3.45660   -0.13124   -0.58915  
 Zn443    Zn   -3.20660   -0.01087   0.73908   
 Zn444    Zn   -3.45660   -0.03864   -0.25709  
 Zn445    Zn   -3.25000   -0.10828   0.23409   
 Zn446    Zn   -3.25000   0.00039    0.62379   
 Zn447    Zn   -3.50000   -0.02739   -0.37238  
 Zn448    Zn   -3.20660   -0.10346   0.40702   
 Zn449    Zn   -3.25000   -0.01569   0.56615   
 Zn450    Zn   -3.00000   -0.04347   -0.43003  
 Zn451    Zn   -3.04340   -0.03864   -0.25709  
 Zn452    Zn   -3.29340   -0.01087   0.73908   
 Zn453    Zn   -3.29340   -0.10346   0.40702   
 Zn454    Zn   -3.25000   -0.09221   0.29173   
 Zn455    Zn   -3.50000   -0.04347   -0.43003  
 Zn456    Zn   -3.50000   -0.11999   -0.70444  
 O457     O    -3.50000   -0.05556   0.50100   
 O458     O    -3.00000   -0.05556   0.50100   
 O459     O    -3.25000   -0.02778   1.49717   
 O460     O    -3.25000   -0.08333   -0.49518  
 O461     O    -3.50000   -0.03704   -0.32915  
 O462     O    -3.50000   -0.12963   -0.66121  
 O463     O    -3.25000   -0.00926   0.66703   
 O464     O    -3.25000   -0.10185   0.33497   
 O465     O    -3.46810   -0.05126   0.30840   
 C466     C    -3.46710   -0.04729   0.13058   
 H467     H    -3.44510   -0.04796   0.16030   
 O468     O    -3.21810   -0.11607   0.97252   
 C469     C    -3.21710   -0.11211   0.79470   
 H470     H    -3.19510   -0.11277   0.82442   
 O471     O    -3.03190   -0.05126   0.30840   
 C472     C    -3.03290   -0.04729   0.13058   
 H473     H    -3.05490   -0.04796   0.16030   
 O474     O    -3.28190   -0.02348   1.30458   
 C475     C    -3.28290   -0.01951   1.12676   
 H476     H    -3.30490   -0.02018   1.15648   
 O477     O    -3.53190   -0.05126   0.30840   
 C478     C    -3.53290   -0.04729   0.13058   
 H479     H    -3.55490   -0.04796   0.16030   
 O480     O    -3.25000   -0.00094   0.00829   
 C481     C    -3.25000   -0.00510   0.18544   
 H482     H    -3.25000   -0.00851   0.14111   
 O483     O    -3.00000   -0.06576   0.67240   
 C484     C    -3.00000   -0.06991   0.84956   
 H485     H    -3.00000   -0.07332   0.80523   
 O486     O    -3.50000   -0.06576   0.67240   
 C487     C    -3.50000   -0.06991   0.84956   
 H488     H    -3.50000   -0.07332   0.80523   
 O489     O    -3.25000   -0.08172   -0.28140  
 C490     C    -3.25000   -0.08550   -0.10292  
 H491     H    -3.25000   -0.08077   -0.11803  
 O492     O    -3.50000   -0.05394   0.71478   
 C493     C    -3.50000   -0.05773   0.89326   
 H494     H    -3.50000   -0.05299   0.87815   
 O495     O    -3.57395   -0.06216   0.42011   
 C496     C    -3.62800   -0.07195   0.38322   
 H497     H    -3.63005   -0.06744   0.35994   
 O498     O    -3.32395   0.00265    -0.24401  
 C499     C    -3.37800   -0.00713   -0.28090  
 H500     H    -3.38005   -0.00262   -0.30418  
 O501     O    -3.29205   -0.09821   -0.49133  
 C502     C    -3.34510   -0.10826   -0.52556  
 H503     H    -3.32515   -0.10945   -0.49040  
 O504     O    -3.54205   -0.07043   0.50485   
 C505     C    -3.59510   -0.08048   0.47061   
 H506     H    -3.57515   -0.08167   0.50578   
 O507     O    -3.04205   -0.07043   0.50485   
 C508     C    -3.09510   -0.08048   0.47061   
 H509     H    -3.07515   -0.08167   0.50578   
 O510     O    -3.42605   -0.13918   0.14390   
 C511     C    -3.37200   -0.12932   0.17747   
 H512     H    -3.36995   -0.13220   0.12770   
 O513     O    -3.17605   -0.11140   1.14008   
 C514     C    -3.12200   -0.06450   -0.48665  
 H515     H    -3.11995   -0.06738   -0.53642  
 O516     O    -3.42605   -0.04659   0.47596   
 C517     C    -3.37200   -0.03673   0.50953   
 H518     H    -3.36995   -0.03961   0.45975   
 O519     O    -3.70795   -0.07082   -0.39310  
 C520     C    -3.65490   -0.06085   -0.35555  
 H521     H    -3.67485   -0.06128   -0.31766  
 O522     O    -3.45795   -0.04304   0.60307   
 C523     C    -3.40490   -0.03307   0.64063   
 H524     H    -3.42485   -0.03351   0.67851   
 O525     O    -3.45795   -0.07043   0.50485   
 C526     C    -3.40490   -0.08048   0.47061   
 H527     H    -3.42485   -0.08167   0.50578   
 O528     O    -3.70795   -0.00562   -0.15927  
 C529     C    -3.65490   -0.01566   -0.19350  
 H530     H    -3.67485   -0.01686   -0.15834  
 O531     O    -3.17605   -0.03438   1.41628   
 C532     C    -3.12200   -0.04417   1.37939   
 H533     H    -3.11995   -0.03966   1.35611   
 O534     O    -3.42605   0.03043    0.75217   
 C535     C    -3.37200   0.02064    0.71527   
 H536     H    -3.36995   0.02515    0.69200   
 O537     O    -3.42605   -0.06216   0.42011   
 C538     C    -3.37200   -0.07195   0.38322   
 H539     H    -3.36995   -0.06744   0.35994   
 O540     O    -3.32395   -0.07436   -0.52022  
 C541     C    -3.37800   -0.06450   -0.48665  
 H542     H    -3.38005   -0.06738   -0.53642  
 O543     O    -3.57395   -0.04659   0.47596   
 C544     C    -3.62800   -0.03673   0.50953   
 H545     H    -3.63005   -0.03961   0.45975   
 O546     O    -3.04205   -0.04304   0.60307   
 C547     C    -3.09510   -0.03307   0.64063   
 H548     H    -3.07515   -0.03351   0.67851   
 O549     O    -3.29205   0.02177    -0.06105  
 C550     C    -3.34510   -0.00529   1.63680   
 H551     H    -3.32515   -0.00573   1.67469   
 O552     O    -3.54205   -0.04304   0.60307   
 C553     C    -3.59510   -0.03307   0.64063   
 H554     H    -3.57515   -0.03351   0.67851   
 O555     O    -3.53190   -0.04133   -0.13656  
 C556     C    -3.53290   -0.04530   0.04126   
 H557     H    -3.55490   -0.04464   0.01154   
 O558     O    -3.28190   -0.10615   0.52756   
 C559     C    -3.28290   -0.11011   0.70538   
 H560     H    -3.30490   -0.10945   0.67566   
 O561     O    -2.96810   -0.04133   -0.13656  
 C562     C    -2.96710   -0.04530   0.04126   
 H563     H    -2.94510   -0.04464   0.01154   
 O564     O    -3.21810   -0.01356   0.85962   
 C565     C    -3.21710   -0.01752   1.03744   
 H566     H    -3.19510   -0.01686   1.00772   
 O567     O    -3.46810   -0.04133   -0.13656  
 C568     C    -3.46710   -0.04530   0.04126   
 H569     H    -3.44510   -0.04464   0.01154   
 O570     O    -3.25000   -0.10346   0.12119   
 C571     C    -3.25000   -0.09968   -0.05729  
 H572     H    -3.25000   -0.10442   -0.04219  
 O573     O    -3.50000   -0.07569   1.11736   
 C574     C    -3.50000   -0.07190   0.93888   
 H575     H    -3.50000   -0.07664   0.95399   
 O576     O    -3.25000   0.00094    0.49562   
 C577     C    -3.25000   0.00510    0.31846   
 H578     H    -3.25000   0.00851    0.36279   
 O579     O    -3.00000   -0.06387   1.15973   
 C580     C    -3.00000   -0.05972   0.98258   
 H581     H    -3.00000   -0.05631   1.02691   
 O582     O    -3.50000   -0.06387   1.15973   
 C583     C    -3.50000   -0.05972   0.98258   
 H584     H    -3.50000   -0.05631   1.02691   
 O585     O    -3.42605   -0.04601   -0.30411  
 C586     C    -3.37200   -0.05587   -0.33768  
 H587     H    -3.36995   -0.05299   -0.28791  
 O588     O    -3.67605   -0.01823   0.69206   
 C589     C    -3.62200   -0.02809   0.65849   
 H590     H    -3.61995   -0.02521   0.70827   
 O591     O    -3.20795   -0.02177   0.56495   
 C592     C    -3.15490   -0.03174   0.52739   
 H593     H    -3.17485   -0.03131   0.48951   
 O594     O    -3.45795   0.00601    1.56113   
 C595     C    -3.40490   -0.00397   1.52357   
 H596     H    -3.42485   -0.00353   1.48568   
 O597     O    -3.70795   -0.02177   0.56495   
 C598     C    -3.65490   -0.03174   0.52739   
 H599     H    -3.67485   -0.03131   0.48951   
 O600     O    -3.07395   -0.06747   1.41203   
 C601     C    -3.12800   -0.05768   1.44892   
 H602     H    -3.13005   -0.06219   1.47220   
 O603     O    -3.32395   -0.00265   0.74791   
 C604     C    -3.37800   0.00713    0.78481   
 H605     H    -3.38005   0.00262    0.80808   
 O606     O    -3.32395   -0.09525   0.41586   
 C607     C    -3.37800   -0.08546   0.45275   
 H608     H    -3.38005   -0.08997   0.47603   
 O609     O    -3.29205   -0.08698   0.33112   
 C610     C    -3.34510   -0.07693   0.36535   
 H611     H    -3.32515   -0.07574   0.33019   
 O612     O    -3.54205   -0.02216   -0.33300  
 C613     C    -3.59510   -0.01211   -0.29877  
 H614     H    -3.57515   -0.01092   -0.33393  
 O615     O    -3.54205   -0.04955   -0.43122  
 C616     C    -3.59510   -0.05952   -0.46878  
 H617     H    -3.57515   -0.05909   -0.50667  
 O618     O    -3.29205   -0.02177   0.56495   
 C619     C    -3.34510   -0.03174   0.52739   
 H620     H    -3.32515   -0.03131   0.48951   
 O621     O    -3.32395   -0.11082   0.36000   
 C622     C    -3.37800   -0.12068   0.32643   
 H623     H    -3.38005   -0.11780   0.37621   
 O624     O    -3.07395   -0.04601   -0.30411  
 C625     C    -3.12800   -0.05587   -0.33768  
 H626     H    -3.13005   -0.05299   -0.28791  
 O627     O    -3.32395   -0.01823   0.69206   
 C628     C    -3.37800   -0.02809   0.65849   
 H629     H    -3.38005   -0.02521   0.70827   
 O630     O    -3.67605   -0.09525   0.41586   
 C631     C    -3.62200   -0.08546   0.45275   
 H632     H    -3.61995   -0.08997   0.47603   
 O633     O    -3.42605   -0.03043   -0.24826  
 C634     C    -3.37200   -0.02064   -0.21137  
 H635     H    -3.36995   -0.02515   -0.18809  
 O636     O    -3.45795   -0.11475   -0.66506  
 C637     C    -3.40490   -0.10471   -0.63083  
 H638     H    -3.42485   -0.10351   -0.66599  
 O639     O    -3.70795   -0.08698   0.33112   
 C640     C    -3.65490   -0.07693   0.36535   
 H641     H    -3.67485   -0.07574   0.33019   
 O642     O    -3.20795   -0.08698   0.33112   
 C643     C    -3.15490   -0.07693   0.36535   
 H644     H    -3.17485   -0.07574   0.33019   
 O645     O    -3.03190   -0.04133   -0.13656  
 C646     C    -3.03290   -0.04530   0.04126   
 H647     H    -3.05490   -0.04464   0.01154   
 O648     O    -3.28190   -0.01356   0.85962   
 C649     C    -3.28290   -0.01752   1.03744   
 H650     H    -3.30490   -0.01686   1.00772   
 O651     O    -3.21810   -0.10615   0.52756   
 C652     C    -3.21710   -0.11011   0.70538   
 H653     H    -3.19510   -0.10945   0.67566   
 O654     O    -3.25000   -0.09165   0.16356   
 C655     C    -3.25000   -0.08750   -0.01359  
 H656     H    -3.25000   -0.08409   0.03073   
 O657     O    -3.25000   -0.01087   0.45325   
 C658     C    -3.25000   -0.00709   0.27476   
 H659     H    -3.25000   -0.01183   0.28987   
 O660     O    -3.00000   -0.07569   1.11736   
 C661     C    -3.00000   -0.07190   0.93888   
 H662     H    -3.00000   -0.07664   0.95399   
 O663     O    -3.42605   -0.12302   -0.58032  
 C664     C    -3.37200   -0.11324   -0.54343  
 H665     H    -3.36995   -0.11775   -0.52015  
 O666     O    -3.17605   -0.09525   0.41586   
 C667     C    -3.12200   -0.08546   0.45275   
 H668     H    -3.11995   -0.08997   0.47603   
 O669     O    -3.45795   -0.02216   -0.33300  
 C670     C    -3.40490   -0.01211   -0.29877  
 H671     H    -3.42485   -0.01092   -0.33393  
 O672     O    -3.57395   -0.04601   -0.30411  
 C673     C    -3.62800   -0.05587   -0.33768  
 H674     H    -3.63005   -0.05299   -0.28791  
 O675     O    -3.29205   -0.11436   0.23289   
 C676     C    -3.34510   -0.12434   0.19534   
 H677     H    -3.32515   -0.12390   0.15745   
 O678     O    -3.04205   -0.04955   -0.43122  
 C679     C    -3.09510   -0.05952   -0.46878  
 H680     H    -3.07515   -0.05909   -0.50667  
 O681     O    -3.04205   -0.05920   1.32729   
 C682     C    -3.09510   -0.04915   1.36153   
 H683     H    -3.07515   -0.04796   1.32636   
 O684     O    -3.29205   0.00562    0.66317   
 C685     C    -3.34510   0.01566    0.69741   
 H686     H    -3.32515   0.01686    0.66224   
 O687     O    -3.57395   -0.03043   -0.24826  
 C688     C    -3.62800   -0.02064   -0.21137  
 H689     H    -3.63005   -0.02515   -0.18809  
 O690     O    -3.17605   -0.01823   0.69206   
 C691     C    -3.12200   -0.02809   0.65849   
 H692     H    -3.11995   -0.02521   0.70827   
 O693     O    -3.42605   0.00955    1.68824   
 C694     C    -3.37200   -0.00031   1.65467   
 H695     H    -3.36995   0.00257    1.70444   
 O696     O    -3.45795   -0.04955   -0.43122  
 C697     C    -3.40490   -0.05952   -0.46878  
 H698     H    -3.42485   -0.05909   -0.50667  
 O699     O    -3.46810   -0.14385   -0.02366  
 C700     C    -2.96710   -0.04729   0.13058   
 H701     H    -2.94510   -0.04796   0.16030   
 O702     O    -3.21810   -0.02348   1.30458   
 C703     C    -3.21710   -0.01951   1.12676   
 H704     H    -3.19510   -0.02018   1.15648   
 O705     O    -3.28190   -0.11607   0.97252   
 C706     C    -3.28290   -0.11211   0.79470   
 H707     H    -3.30490   -0.11277   0.82442   
 O708     O    -3.25000   0.01087    0.05066   
 C709     C    -3.25000   0.00709    0.22914   
 H710     H    -3.25000   0.01183    0.21403   
 O711     O    -3.50000   -0.14654   0.38272   
 C712     C    -3.00000   -0.05773   0.89326   
 H713     H    -3.00000   -0.05299   0.87815   
 O714     O    -3.25000   -0.09354   -0.32377  
 C715     C    -3.25000   -0.09769   -0.14662  
 H716     H    -3.25000   -0.10110   -0.19095  
 O717     O    -3.07395   -0.04659   0.47596   
 C718     C    -3.12800   -0.03673   0.50953   
 H719     H    -3.13005   -0.03961   0.45975   
 O720     O    -3.32395   -0.01881   1.47213   
 C721     C    -3.37800   -0.00895   1.50571   
 H722     H    -3.38005   -0.01183   1.45593   
 O723     O    -3.29205   -0.07082   -0.39310  
 C724     C    -3.34510   -0.06085   -0.35555  
 H725     H    -3.32515   -0.06128   -0.31766  
 O726     O    -3.67605   0.00265    -0.24401  
 C727     C    -3.62200   -0.00713   -0.28090  
 H728     H    -3.61995   -0.00262   -0.30418  
 O729     O    -3.20795   -0.00562   -0.15927  
 C730     C    -3.15490   -0.05270   1.46679   
 H731     H    -3.17485   -0.05389   1.50195   
 O732     O    -3.45795   0.02216    0.83691   
 C733     C    -3.40490   0.01211    0.80267   
 H734     H    -3.42485   0.01092    0.83784   
 O735     O    -3.45795   -0.13564   0.27101   
 C736     C    -3.40490   -0.12566   0.30857   
 H737     H    -3.42485   -0.12610   0.34646   
 O738     O    -3.20795   -0.07082   -0.39310  
 C739     C    -3.15490   -0.06085   -0.35555  
 H740     H    -3.17485   -0.06128   -0.31766  
 O741     O    -3.67605   -0.07436   -0.52022  
 C742     C    -3.62200   -0.06450   -0.48665  
 H743     H    -3.61995   -0.06738   -0.53642  
 O744     O    -3.32395   -0.12698   1.08422   
 C745     C    -3.37800   -0.09973   -0.61296  
 H746     H    -3.38005   -0.09522   -0.63624  
 O747     O    -3.07395   -0.06216   0.42011   
 C748     C    -3.12800   -0.07195   0.38322   
 H749     H    -3.13005   -0.06744   0.35994   
 O750     O    -3.29205   -0.00562   -0.15927  
 C751     C    -3.34510   -0.01566   -0.19350  
 H752     H    -3.32515   -0.01686   -0.15834  
 C753     C    -3.50000   -0.05042   0.27071   
 C754     C    -3.50000   -0.04829   0.17525   
 C755     C    -3.25000   -0.11523   0.93483   
 C756     C    -3.25000   -0.11310   0.83936   
 C757     C    -3.00000   -0.05042   0.27071   
 C758     C    -3.00000   -0.04829   0.17525   
 C759     C    -3.25000   -0.02264   1.26689   
 C760     C    -3.25000   -0.02051   1.17142   
 C761     C    -3.25000   0.00412    0.06716   
 C762     C    -3.25000   0.00199    0.16263   
 C763     C    -3.00000   -0.06069   0.73128   
 C764     C    -3.00000   -0.06282   0.82675   
 C765     C    -3.50000   -0.06069   0.73128   
 C766     C    -3.50000   -0.06282   0.82675   
 C767     C    -3.25000   -0.08847   -0.26490  
 C768     C    -3.25000   -0.09060   -0.16943  
 C769     C    -3.56935   -0.06840   0.45494   
 C770     C    -3.59810   -0.07372   0.43585   
 C771     C    -3.31935   -0.00358   -0.20918  
 C772     C    -3.34810   -0.00891   -0.22827  
 C773     C    -3.31935   -0.09618   -0.54124  
 C774     C    -3.34810   -0.10150   -0.56033  
 C775     C    -3.06935   -0.06840   0.45494   
 C776     C    -3.09810   -0.07372   0.43585   
 C777     C    -3.43065   -0.13531   0.21499   
 C778     C    -3.40190   -0.12998   0.23409   
 C779     C    -3.18065   -0.07049   -0.44912  
 C780     C    -3.15190   -0.06517   -0.43003  
 C781     C    -3.43065   -0.04271   0.54705   
 C782     C    -3.40190   -0.03739   0.56615   
 C783     C    -3.68065   -0.07049   -0.44912  
 C784     C    -3.65190   -0.06517   -0.43003  
 C785     C    -3.43065   -0.06840   0.45494   
 C786     C    -3.40190   -0.07372   0.43585   
 C787     C    -3.68065   -0.00358   -0.20918  
 C788     C    -3.65190   -0.00891   -0.22827  
 C789     C    -3.18065   -0.04062   1.45112   
 C790     C    -3.15190   -0.04594   1.43202   
 C791     C    -3.43065   0.02419    0.78700   
 C792     C    -3.40190   0.01887    0.76790   
 C793     C    -3.31935   -0.07049   -0.44912  
 C794     C    -3.34810   -0.06517   -0.43003  
 C795     C    -3.56935   -0.04271   0.54705   
 C796     C    -3.59810   -0.03739   0.56615   
 C797     C    -3.06935   -0.04271   0.54705   
 C798     C    -3.09810   -0.03739   0.56615   
 C799     C    -3.31935   -0.01494   1.54323   
 C800     C    -3.34810   -0.00961   1.56232   
 C801     C    -3.50000   -0.04217   -0.09887  
 C802     C    -3.50000   -0.04430   -0.00340  
 C803     C    -3.25000   -0.10699   0.56525   
 C804     C    -3.25000   -0.10912   0.66072   
 C805     C    -3.00000   -0.04217   -0.09887  
 C806     C    -3.00000   -0.04430   -0.00340  
 C807     C    -3.25000   -0.01440   0.89731   
 C808     C    -3.25000   -0.01653   0.99277   
 C809     C    -3.25000   -0.09671   0.10468   
 C810     C    -3.25000   -0.09459   0.00922   
 C811     C    -3.50000   -0.06894   1.10086   
 C812     C    -3.50000   -0.06681   1.00539   
 C813     C    -3.25000   -0.00412   0.43674   
 C814     C    -3.25000   -0.00199   0.34128   
 C815     C    -3.00000   -0.06894   1.10086   
 C816     C    -3.00000   -0.06681   1.00539   
 C817     C    -3.43065   -0.04988   -0.37521  
 C818     C    -3.40190   -0.05520   -0.39430  
 C819     C    -3.68065   -0.02210   0.62097   
 C820     C    -3.65190   -0.02743   0.60188   
 C821     C    -3.18065   -0.02210   0.62097   
 C822     C    -3.15190   -0.02743   0.60188   
 C823     C    -3.43065   0.00568    1.61714   
 C824     C    -3.40190   0.00035    1.59805   
 C825     C    -3.06935   -0.06123   1.37720   
 C826     C    -3.09810   -0.05591   1.39629   
 C827     C    -3.31935   0.00358    0.71308   
 C828     C    -3.34810   0.00891    0.73218   
 C829     C    -3.31935   -0.08901   0.38102   
 C830     C    -3.34810   -0.08369   0.40012   
 C831     C    -3.56935   -0.02419   -0.28309  
 C832     C    -3.59810   -0.01887   -0.26400  
 C833     C    -3.56935   -0.04988   -0.37521  
 C834     C    -3.59810   -0.05520   -0.39430  
 C835     C    -3.31935   -0.02210   0.62097   
 C836     C    -3.34810   -0.02743   0.60188   
 C837     C    -3.31935   -0.11469   0.28891   
 C838     C    -3.34810   -0.12002   0.26982   
 C839     C    -3.06935   -0.04988   -0.37521  
 C840     C    -3.09810   -0.05520   -0.39430  
 C841     C    -3.68065   -0.08901   0.38102   
 C842     C    -3.65190   -0.08369   0.40012   
 C843     C    -3.43065   -0.02419   -0.28309  
 C844     C    -3.40190   -0.01887   -0.26400  
 C845     C    -3.43065   -0.11679   -0.61515  
 C846     C    -3.40190   -0.11146   -0.59606  
 C847     C    -3.18065   -0.08901   0.38102   
 C848     C    -3.15190   -0.08369   0.40012   
 Zn849    Zn   0.04340    -0.55395   0.42894   
 Zn850    Zn   0.29340    -0.61876   1.09306   
 Zn851    Zn   0.45660    -0.55395   0.42894   
 Zn852    Zn   0.20660    -0.52617   1.42511   
 Zn853    Zn   -0.04340   -0.55395   0.42894   
 Zn854    Zn   0.25000    -0.50039   -0.11989  
 Zn855    Zn   0.50000    -0.56520   0.54423   
 Zn856    Zn   0.00000    -0.56520   0.54423   
 Zn857    Zn   0.25000    -0.57690   -0.39430  
 Zn858    Zn   0.00000    -0.54913   0.60188   
 Zn859    Zn   0.25000    -0.59298   -0.45195  
 Zn860    Zn   0.04340    -0.64654   0.09688   
 Zn861    Zn   0.25000    -0.48431   -0.06224  
 Zn862    Zn   0.29340    -0.52617   1.42511   
 Zn863    Zn   0.20660    -0.61876   1.09306   
 Zn864    Zn   0.00000    -0.64172   0.26982   
 Zn865    Zn   -0.04340   -0.53864   -0.25709  
 Zn866    Zn   0.04340    -0.63124   -0.58915  
 Zn867    Zn   0.29340    -0.51087   0.73908   
 Zn868    Zn   0.04340    -0.53864   -0.25709  
 Zn869    Zn   0.25000    -0.60828   0.23409   
 Zn870    Zn   0.25000    -0.49961   0.62379   
 Zn871    Zn   0.00000    -0.52739   -0.37238  
 Zn872    Zn   0.29340    -0.60346   0.40702   
 Zn873    Zn   0.25000    -0.51569   0.56615   
 Zn874    Zn   0.50000    -0.54347   -0.43003  
 Zn875    Zn   0.45660    -0.53864   -0.25709  
 Zn876    Zn   0.20660    -0.51087   0.73908   
 Zn877    Zn   0.20660    -0.60346   0.40702   
 Zn878    Zn   0.25000    -0.59221   0.29173   
 Zn879    Zn   0.00000    -0.54347   -0.43003  
 Zn880    Zn   0.00000    -0.61999   -0.70444  
 O881     O    0.00000    -0.55556   0.50100   
 O882     O    0.50000    -0.55556   0.50100   
 O883     O    0.25000    -0.52778   1.49717   
 O884     O    0.25000    -0.58333   -0.49518  
 O885     O    0.00000    -0.53704   -0.32915  
 O886     O    0.00000    -0.62963   -0.66121  
 O887     O    0.25000    -0.50926   0.66703   
 O888     O    0.25000    -0.60185   0.33497   
 O889     O    0.03190    -0.55126   0.30840   
 C890     C    0.03290    -0.54729   0.13058   
 H891     H    0.05490    -0.54796   0.16030   
 O892     O    0.28190    -0.61607   0.97252   
 C893     C    0.28290    -0.61211   0.79470   
 H894     H    0.30490    -0.61277   0.82442   
 O895     O    0.46810    -0.55126   0.30840   
 C896     C    0.46710    -0.54729   0.13058   
 H897     H    0.44510    -0.54796   0.16030   
 O898     O    0.21810    -0.52348   1.30458   
 C899     C    0.21710    -0.51951   1.12676   
 H900     H    0.19510    -0.52018   1.15648   
 O901     O    -0.03190   -0.55126   0.30840   
 C902     C    -0.03290   -0.54729   0.13058   
 H903     H    -0.05490   -0.54796   0.16030   
 O904     O    0.25000    -0.50094   0.00829   
 C905     C    0.25000    -0.50510   0.18544   
 H906     H    0.25000    -0.50851   0.14111   
 O907     O    0.50000    -0.56576   0.67240   
 C908     C    0.50000    -0.56991   0.84956   
 H909     H    0.50000    -0.57332   0.80523   
 O910     O    0.00000    -0.56576   0.67240   
 C911     C    0.00000    -0.56991   0.84956   
 H912     H    0.00000    -0.57332   0.80523   
 O913     O    0.25000    -0.58172   -0.28140  
 C914     C    0.25000    -0.58550   -0.10292  
 H915     H    0.25000    -0.58077   -0.11803  
 O916     O    0.00000    -0.55394   0.71478   
 C917     C    0.00000    -0.55773   0.89326   
 H918     H    0.00000    -0.55299   0.87815   
 O919     O    -0.07395   -0.56216   0.42011   
 C920     C    -0.12800   -0.57195   0.38322   
 H921     H    -0.13005   -0.56744   0.35994   
 O922     O    0.17605    -0.49735   -0.24401  
 C923     C    0.12200    -0.50713   -0.28090  
 H924     H    0.11995    -0.50262   -0.30418  
 O925     O    0.20795    -0.59821   -0.49133  
 C926     C    0.15490    -0.60826   -0.52556  
 H927     H    0.17485    -0.60945   -0.49040  
 O928     O    -0.04205   -0.57043   0.50485   
 C929     C    -0.09510   -0.58048   0.47061   
 H930     H    -0.07515   -0.58167   0.50578   
 O931     O    0.45795    -0.57043   0.50485   
 C932     C    0.40490    -0.58048   0.47061   
 H933     H    0.42485    -0.58167   0.50578   
 O934     O    0.07395    -0.63918   0.14390   
 C935     C    0.12800    -0.62932   0.17747   
 H936     H    0.13005    -0.63220   0.12770   
 O937     O    0.32395    -0.61140   1.14008   
 C938     C    0.37800    -0.56450   -0.48665  
 H939     H    0.38005    -0.56738   -0.53642  
 O940     O    0.07395    -0.54659   0.47596   
 C941     C    0.12800    -0.53673   0.50953   
 H942     H    0.13005    -0.53961   0.45975   
 O943     O    -0.20795   -0.57082   -0.39310  
 C944     C    -0.15490   -0.56085   -0.35555  
 H945     H    -0.17485   -0.56128   -0.31766  
 O946     O    0.04205    -0.54304   0.60307   
 C947     C    0.09510    -0.53307   0.64063   
 H948     H    0.07515    -0.53351   0.67851   
 O949     O    0.04205    -0.57043   0.50485   
 C950     C    0.09510    -0.58048   0.47061   
 H951     H    0.07515    -0.58167   0.50578   
 O952     O    -0.20795   -0.50562   -0.15927  
 C953     C    -0.15490   -0.51566   -0.19350  
 H954     H    -0.17485   -0.51686   -0.15834  
 O955     O    0.32395    -0.53438   1.41628   
 C956     C    0.37800    -0.54417   1.37939   
 H957     H    0.38005    -0.53966   1.35611   
 O958     O    0.07395    -0.46957   0.75217   
 C959     C    0.12800    -0.47936   0.71527   
 H960     H    0.13005    -0.47485   0.69200   
 O961     O    0.07395    -0.56216   0.42011   
 C962     C    0.12800    -0.57195   0.38322   
 H963     H    0.13005    -0.56744   0.35994   
 O964     O    0.17605    -0.57436   -0.52022  
 C965     C    0.12200    -0.56450   -0.48665  
 H966     H    0.11995    -0.56738   -0.53642  
 O967     O    -0.07395   -0.54659   0.47596   
 C968     C    -0.12800   -0.53673   0.50953   
 H969     H    -0.13005   -0.53961   0.45975   
 O970     O    0.45795    -0.54304   0.60307   
 C971     C    0.40490    -0.53307   0.64063   
 H972     H    0.42485    -0.53351   0.67851   
 O973     O    0.20795    -0.47823   -0.06105  
 C974     C    0.15490    -0.50529   1.63680   
 H975     H    0.17485    -0.50573   1.67469   
 O976     O    -0.04205   -0.54304   0.60307   
 C977     C    -0.09510   -0.53307   0.64063   
 H978     H    -0.07515   -0.53351   0.67851   
 O979     O    -0.03190   -0.54133   -0.13656  
 C980     C    -0.03290   -0.54530   0.04126   
 H981     H    -0.05490   -0.54464   0.01154   
 O982     O    0.21810    -0.60615   0.52756   
 C983     C    0.21710    -0.61011   0.70538   
 H984     H    0.19510    -0.60945   0.67566   
 O985     O    0.53190    -0.54133   -0.13656  
 C986     C    0.53290    -0.54530   0.04126   
 H987     H    0.55490    -0.54464   0.01154   
 O988     O    0.28190    -0.51356   0.85962   
 C989     C    0.28290    -0.51752   1.03744   
 H990     H    0.30490    -0.51686   1.00772   
 O991     O    0.03190    -0.54133   -0.13656  
 C992     C    0.03290    -0.54530   0.04126   
 H993     H    0.05490    -0.54464   0.01154   
 O994     O    0.25000    -0.60346   0.12119   
 C995     C    0.25000    -0.59968   -0.05729  
 H996     H    0.25000    -0.60442   -0.04219  
 O997     O    0.00000    -0.57569   1.11736   
 C998     C    0.00000    -0.57190   0.93888   
 H999     H    0.00000    -0.57664   0.95399   
 O1000    O    0.25000    -0.49906   0.49562   
 C1001    C    0.25000    -0.49490   0.31846   
 H1002    H    0.25000    -0.49149   0.36279   
 O1003    O    0.50000    -0.56387   1.15973   
 C1004    C    0.50000    -0.55972   0.98258   
 H1005    H    0.50000    -0.55631   1.02691   
 O1006    O    0.00000    -0.56387   1.15973   
 C1007    C    0.00000    -0.55972   0.98258   
 H1008    H    0.00000    -0.55631   1.02691   
 O1009    O    0.07395    -0.54601   -0.30411  
 C1010    C    0.12800    -0.55587   -0.33768  
 H1011    H    0.13005    -0.55299   -0.28791  
 O1012    O    -0.17605   -0.51823   0.69206   
 C1013    C    -0.12200   -0.52809   0.65849   
 H1014    H    -0.11995   -0.52521   0.70827   
 O1015    O    0.29205    -0.52177   0.56495   
 C1016    C    0.34510    -0.53174   0.52739   
 H1017    H    0.32515    -0.53131   0.48951   
 O1018    O    0.04205    -0.49399   1.56113   
 C1019    C    0.09510    -0.50397   1.52357   
 H1020    H    0.07515    -0.50353   1.48568   
 O1021    O    -0.20795   -0.52177   0.56495   
 C1022    C    -0.15490   -0.53174   0.52739   
 H1023    H    -0.17485   -0.53131   0.48951   
 O1024    O    0.42605    -0.56747   1.41203   
 C1025    C    0.37200    -0.55768   1.44892   
 H1026    H    0.36995    -0.56219   1.47220   
 O1027    O    0.17605    -0.50265   0.74791   
 C1028    C    0.12200    -0.49287   0.78481   
 H1029    H    0.11995    -0.49738   0.80808   
 O1030    O    0.17605    -0.59525   0.41586   
 C1031    C    0.12200    -0.58546   0.45275   
 H1032    H    0.11995    -0.58997   0.47603   
 O1033    O    0.20795    -0.58698   0.33112   
 C1034    C    0.15490    -0.57693   0.36535   
 H1035    H    0.17485    -0.57574   0.33019   
 O1036    O    -0.04205   -0.52216   -0.33300  
 C1037    C    -0.09510   -0.51211   -0.29877  
 H1038    H    -0.07515   -0.51092   -0.33393  
 O1039    O    -0.04205   -0.54955   -0.43122  
 C1040    C    -0.09510   -0.55952   -0.46878  
 H1041    H    -0.07515   -0.55909   -0.50667  
 O1042    O    0.20795    -0.52177   0.56495   
 C1043    C    0.15490    -0.53174   0.52739   
 H1044    H    0.17485    -0.53131   0.48951   
 O1045    O    0.17605    -0.61082   0.36000   
 C1046    C    0.12200    -0.62068   0.32643   
 H1047    H    0.11995    -0.61780   0.37621   
 O1048    O    0.42605    -0.54601   -0.30411  
 C1049    C    0.37200    -0.55587   -0.33768  
 H1050    H    0.36995    -0.55299   -0.28791  
 O1051    O    0.17605    -0.51823   0.69206   
 C1052    C    0.12200    -0.52809   0.65849   
 H1053    H    0.11995    -0.52521   0.70827   
 O1054    O    -0.17605   -0.59525   0.41586   
 C1055    C    -0.12200   -0.58546   0.45275   
 H1056    H    -0.11995   -0.58997   0.47603   
 O1057    O    0.07395    -0.53043   -0.24826  
 C1058    C    0.12800    -0.52064   -0.21137  
 H1059    H    0.13005    -0.52515   -0.18809  
 O1060    O    0.04205    -0.61475   -0.66506  
 C1061    C    0.09510    -0.60471   -0.63083  
 H1062    H    0.07515    -0.60351   -0.66599  
 O1063    O    -0.20795   -0.58698   0.33112   
 C1064    C    -0.15490   -0.57693   0.36535   
 H1065    H    -0.17485   -0.57574   0.33019   
 O1066    O    0.29205    -0.58698   0.33112   
 C1067    C    0.34510    -0.57693   0.36535   
 H1068    H    0.32515    -0.57574   0.33019   
 O1069    O    0.46810    -0.54133   -0.13656  
 C1070    C    0.46710    -0.54530   0.04126   
 H1071    H    0.44510    -0.54464   0.01154   
 O1072    O    0.21810    -0.51356   0.85962   
 C1073    C    0.21710    -0.51752   1.03744   
 H1074    H    0.19510    -0.51686   1.00772   
 O1075    O    0.28190    -0.60615   0.52756   
 C1076    C    0.28290    -0.61011   0.70538   
 H1077    H    0.30490    -0.60945   0.67566   
 O1078    O    0.25000    -0.59165   0.16356   
 C1079    C    0.25000    -0.58750   -0.01359  
 H1080    H    0.25000    -0.58409   0.03073   
 O1081    O    0.25000    -0.51087   0.45325   
 C1082    C    0.25000    -0.50709   0.27476   
 H1083    H    0.25000    -0.51183   0.28987   
 O1084    O    0.50000    -0.57569   1.11736   
 C1085    C    0.50000    -0.57190   0.93888   
 H1086    H    0.50000    -0.57664   0.95399   
 O1087    O    0.07395    -0.62302   -0.58032  
 C1088    C    0.12800    -0.61324   -0.54343  
 H1089    H    0.13005    -0.61775   -0.52015  
 O1090    O    0.32395    -0.59525   0.41586   
 C1091    C    0.37800    -0.58546   0.45275   
 H1092    H    0.38005    -0.58997   0.47603   
 O1093    O    0.04205    -0.52216   -0.33300  
 C1094    C    0.09510    -0.51211   -0.29877  
 H1095    H    0.07515    -0.51092   -0.33393  
 O1096    O    -0.07395   -0.54601   -0.30411  
 C1097    C    -0.12800   -0.55587   -0.33768  
 H1098    H    -0.13005   -0.55299   -0.28791  
 O1099    O    0.20795    -0.61436   0.23289   
 C1100    C    0.15490    -0.62434   0.19534   
 H1101    H    0.17485    -0.62390   0.15745   
 O1102    O    0.45795    -0.54955   -0.43122  
 C1103    C    0.40490    -0.55952   -0.46878  
 H1104    H    0.42485    -0.55909   -0.50667  
 O1105    O    0.45795    -0.55920   1.32729   
 C1106    C    0.40490    -0.54915   1.36153   
 H1107    H    0.42485    -0.54796   1.32636   
 O1108    O    0.20795    -0.49438   0.66317   
 C1109    C    0.15490    -0.48434   0.69741   
 H1110    H    0.17485    -0.48314   0.66224   
 O1111    O    -0.07395   -0.53043   -0.24826  
 C1112    C    -0.12800   -0.52064   -0.21137  
 H1113    H    -0.13005   -0.52515   -0.18809  
 O1114    O    0.32395    -0.51823   0.69206   
 C1115    C    0.37800    -0.52809   0.65849   
 H1116    H    0.38005    -0.52521   0.70827   
 O1117    O    0.07395    -0.49045   1.68824   
 C1118    C    0.12800    -0.50031   1.65467   
 H1119    H    -0.07828   0.49009    -0.35094  
 O1120    O    0.04205    -0.54955   -0.43122  
 C1121    C    0.09510    -0.55952   -0.46878  
 H1122    H    0.07515    -0.55909   -0.50667  
 O1123    O    0.03190    -0.64385   -0.02366  
 C1124    C    0.53290    -0.54729   0.13058   
 H1125    H    0.55490    -0.54796   0.16030   
 O1126    O    0.28190    -0.52348   1.30458   
 C1127    C    0.28290    -0.51951   1.12676   
 H1128    H    0.30490    -0.52018   1.15648   
 O1129    O    0.21810    -0.61607   0.97252   
 C1130    C    0.21710    -0.61211   0.79470   
 H1131    H    0.19510    -0.61277   0.82442   
 O1132    O    0.25000    -0.48913   0.05066   
 C1133    C    0.25000    -0.49291   0.22914   
 H1134    H    0.25000    -0.48817   0.21403   
 O1135    O    0.00000    -0.64654   0.38272   
 C1136    C    0.50000    -0.55773   0.89326   
 H1137    H    0.50000    -0.55299   0.87815   
 O1138    O    0.25000    -0.59354   -0.32377  
 C1139    C    0.25000    -0.59769   -0.14662  
 H1140    H    0.25000    -0.60110   -0.19095  
 O1141    O    0.42605    -0.54659   0.47596   
 C1142    C    0.37200    -0.53673   0.50953   
 H1143    H    0.36995    -0.53961   0.45975   
 O1144    O    0.17605    -0.51881   1.47213   
 C1145    C    0.12200    -0.50895   1.50571   
 H1146    H    0.11995    -0.51183   1.45593   
 O1147    O    0.20795    -0.57082   -0.39310  
 C1148    C    0.15490    -0.56085   -0.35555  
 H1149    H    0.17485    -0.56128   -0.31766  
 O1150    O    -0.17605   -0.49735   -0.24401  
 C1151    C    -0.12200   -0.50713   -0.28090  
 H1152    H    -0.11995   -0.50262   -0.30418  
 O1153    O    0.29205    -0.50562   -0.15927  
 C1154    C    0.34510    -0.55270   1.46679   
 H1155    H    0.11682    0.43362    -0.55343  
 O1156    O    0.04205    -0.47784   0.83691   
 C1157    C    0.09510    -0.48789   0.80267   
 H1158    H    0.07515    -0.48908   0.83784   
 O1159    O    0.04205    -0.63564   0.27101   
 C1160    C    0.09510    -0.62566   0.30857   
 H1161    H    0.07515    -0.62610   0.34646   
 O1162    O    0.29205    -0.57082   -0.39310  
 C1163    C    0.34510    -0.56085   -0.35555  
 H1164    H    0.32515    -0.56128   -0.31766  
 O1165    O    -0.17605   -0.57436   -0.52022  
 C1166    C    -0.12200   -0.56450   -0.48665  
 H1167    H    -0.11995   -0.56738   -0.53642  
 O1168    O    0.17605    -0.62698   1.08422   
 C1169    C    0.12200    -0.59973   -0.61296  
 H1170    H    0.11995    -0.59522   -0.63624  
 O1171    O    0.42605    -0.56216   0.42011   
 C1172    C    0.37200    -0.57195   0.38322   
 H1173    H    0.36995    -0.56744   0.35994   
 O1174    O    0.20795    -0.50562   -0.15927  
 C1175    C    0.15490    -0.51566   -0.19350  
 H1176    H    0.17485    -0.51686   -0.15834  
 C1177    C    0.00000    -0.55042   0.27071   
 C1178    C    0.00000    -0.54829   0.17525   
 C1179    C    0.25000    -0.61523   0.93483   
 C1180    C    0.25000    -0.61310   0.83936   
 C1181    C    0.50000    -0.55042   0.27071   
 C1182    C    0.50000    -0.54829   0.17525   
 C1183    C    0.25000    -0.52264   1.26689   
 C1184    C    0.25000    -0.52051   1.17142   
 C1185    C    0.25000    -0.49588   0.06716   
 C1186    C    0.25000    -0.49801   0.16263   
 C1187    C    0.50000    -0.56069   0.73128   
 C1188    C    0.50000    -0.56282   0.82675   
 C1189    C    0.00000    -0.56069   0.73128   
 C1190    C    0.00000    -0.56282   0.82675   
 C1191    C    0.25000    -0.58847   -0.26490  
 C1192    C    0.25000    -0.59060   -0.16943  
 C1193    C    -0.06935   -0.56840   0.45494   
 C1194    C    -0.09810   -0.57372   0.43585   
 C1195    C    0.18065    -0.50358   -0.20918  
 C1196    C    0.15190    -0.50891   -0.22827  
 C1197    C    0.18065    -0.59618   -0.54124  
 C1198    C    0.15190    -0.60150   -0.56033  
 C1199    C    0.43065    -0.56840   0.45494   
 C1200    C    0.40190    -0.57372   0.43585   
 C1201    C    0.06935    -0.63531   0.21499   
 C1202    C    0.09810    -0.62998   0.23409   
 C1203    C    0.31935    -0.57049   -0.44912  
 C1204    C    0.34810    -0.56517   -0.43003  
 C1205    C    0.06935    -0.54271   0.54705   
 C1206    C    0.09810    -0.53739   0.56615   
 C1207    C    -0.18065   -0.57049   -0.44912  
 C1208    C    -0.15190   -0.56517   -0.43003  
 C1209    C    0.06935    -0.56840   0.45494   
 C1210    C    0.09810    -0.57372   0.43585   
 C1211    C    -0.18065   -0.50358   -0.20918  
 C1212    C    -0.15190   -0.50891   -0.22827  
 C1213    C    0.31935    -0.54062   1.45112   
 C1214    C    0.34810    -0.54594   1.43202   
 C1215    C    0.06935    -0.47581   0.78700   
 C1216    C    0.09810    -0.48113   0.76790   
 C1217    C    0.18065    -0.57049   -0.44912  
 C1218    C    0.15190    -0.56517   -0.43003  
 C1219    C    -0.06935   -0.54271   0.54705   
 C1220    C    -0.09810   -0.53739   0.56615   
 C1221    C    0.43065    -0.54271   0.54705   
 C1222    C    0.40190    -0.53739   0.56615   
 C1223    C    0.18065    -0.51494   1.54323   
 C1224    C    0.15190    -0.50961   1.56232   
 C1225    C    0.00000    -0.54217   -0.09887  
 C1226    C    0.00000    -0.54430   -0.00340  
 C1227    C    0.25000    -0.60699   0.56525   
 C1228    C    0.25000    -0.60912   0.66072   
 C1229    C    0.50000    -0.54217   -0.09887  
 C1230    C    0.50000    -0.54430   -0.00340  
 C1231    C    0.25000    -0.51440   0.89731   
 C1232    C    0.25000    -0.51653   0.99277   
 C1233    C    0.25000    -0.59671   0.10468   
 C1234    C    0.25000    -0.59459   0.00922   
 C1235    C    0.00000    -0.56894   1.10086   
 C1236    C    0.00000    -0.56681   1.00539   
 C1237    C    0.25000    -0.50412   0.43674   
 C1238    C    0.25000    -0.50199   0.34128   
 C1239    C    0.50000    -0.56894   1.10086   
 C1240    C    0.50000    -0.56681   1.00539   
 C1241    C    0.06935    -0.54988   -0.37521  
 C1242    C    0.09810    -0.55520   -0.39430  
 C1243    C    -0.18065   -0.52210   0.62097   
 C1244    C    -0.15190   -0.52743   0.60188   
 C1245    C    0.31935    -0.52210   0.62097   
 C1246    C    0.34810    -0.52743   0.60188   
 C1247    C    0.06935    -0.49432   1.61714   
 C1248    C    0.09810    -0.49965   1.59805   
 C1249    C    0.43065    -0.56123   1.37720   
 C1250    C    0.40190    -0.55591   1.39629   
 C1251    C    0.18065    -0.49642   0.71308   
 C1252    C    0.15190    -0.49109   0.73218   
 C1253    C    0.18065    -0.58901   0.38102   
 C1254    C    0.15190    -0.58369   0.40012   
 C1255    C    -0.06935   -0.52419   -0.28309  
 C1256    C    -0.09810   -0.51887   -0.26400  
 C1257    C    -0.06935   -0.54988   -0.37521  
 C1258    C    -0.09810   -0.55520   -0.39430  
 C1259    C    0.18065    -0.52210   0.62097   
 C1260    C    0.15190    -0.52743   0.60188   
 C1261    C    0.18065    -0.61469   0.28891   
 C1262    C    0.15190    -0.62002   0.26982   
 C1263    C    0.43065    -0.54988   -0.37521  
 C1264    C    0.40190    -0.55520   -0.39430  
 C1265    C    -0.18065   -0.58901   0.38102   
 C1266    C    -0.15190   -0.58369   0.40012   
 C1267    C    0.06935    -0.52419   -0.28309  
 C1268    C    0.09810    -0.51887   -0.26400  
 C1269    C    0.06935    -0.61679   -0.61515  
 C1270    C    0.09810    -0.61146   -0.59606  
 C1271    C    0.31935    -0.58901   0.38102   
 C1272    C    0.34810    -0.58369   0.40012   
 Zn1273   Zn   -2.45660   -0.05395   0.42894   
 Zn1274   Zn   -2.20660   -0.11876   1.09306   
 Zn1275   Zn   -2.04340   -0.05395   0.42894   
 Zn1276   Zn   -2.29340   -0.02617   1.42511   
 Zn1277   Zn   -2.54340   -0.05395   0.42894   
 Zn1278   Zn   -2.25000   -0.00039   -0.11989  
 Zn1279   Zn   -2.00000   -0.06520   0.54423   
 Zn1280   Zn   -2.50000   -0.06520   0.54423   
 Zn1281   Zn   -2.25000   -0.07690   -0.39430  
 Zn1282   Zn   -2.50000   -0.04913   0.60188   
 Zn1283   Zn   -2.25000   -0.09298   -0.45195  
 Zn1284   Zn   -2.45660   -0.14654   0.09688   
 Zn1285   Zn   -2.25000   0.01569    -0.06224  
 Zn1286   Zn   -2.20660   -0.02617   1.42511   
 Zn1287   Zn   -2.29340   -0.11876   1.09306   
 Zn1288   Zn   -2.50000   -0.14172   0.26982   
 Zn1289   Zn   -2.54340   -0.03864   -0.25709  
 Zn1290   Zn   -2.45660   -0.13124   -0.58915  
 Zn1291   Zn   -2.20660   -0.01087   0.73908   
 Zn1292   Zn   -2.45660   -0.03864   -0.25709  
 Zn1293   Zn   -2.25000   -0.10828   0.23409   
 Zn1294   Zn   -2.25000   0.00039    0.62379   
 Zn1295   Zn   -2.50000   -0.02739   -0.37238  
 Zn1296   Zn   -2.20660   -0.10346   0.40702   
 Zn1297   Zn   -2.25000   -0.01569   0.56615   
 Zn1298   Zn   -2.00000   -0.04347   -0.43003  
 Zn1299   Zn   -2.04340   -0.03864   -0.25709  
 Zn1300   Zn   -2.29340   -0.01087   0.73908   
 Zn1301   Zn   -2.29340   -0.10346   0.40702   
 Zn1302   Zn   -2.25000   -0.09221   0.29173   
 Zn1303   Zn   -2.50000   -0.04347   -0.43003  
 Zn1304   Zn   -2.50000   -0.11999   -0.70444  
 O1305    O    -2.50000   -0.05556   0.50100   
 O1306    O    -2.00000   -0.05556   0.50100   
 O1307    O    -2.25000   -0.02778   1.49717   
 O1308    O    -2.25000   -0.08333   -0.49518  
 O1309    O    -2.50000   -0.03704   -0.32915  
 O1310    O    -2.50000   -0.12963   -0.66121  
 O1311    O    -2.25000   -0.00926   0.66703   
 O1312    O    -2.25000   -0.10185   0.33497   
 O1313    O    -2.46810   -0.05126   0.30840   
 C1314    C    -2.46710   -0.04729   0.13058   
 H1315    H    -2.44510   -0.04796   0.16030   
 O1316    O    -2.21810   -0.11607   0.97252   
 C1317    C    -2.21710   -0.11211   0.79470   
 H1318    H    -2.19510   -0.11277   0.82442   
 O1319    O    -2.03190   -0.05126   0.30840   
 C1320    C    -2.03290   -0.04729   0.13058   
 H1321    H    -2.05490   -0.04796   0.16030   
 O1322    O    -2.28190   -0.02348   1.30458   
 C1323    C    -2.28290   -0.01951   1.12676   
 H1324    H    -2.30490   -0.02018   1.15648   
 O1325    O    -2.53190   -0.05126   0.30840   
 C1326    C    -2.53290   -0.04729   0.13058   
 H1327    H    -2.55490   -0.04796   0.16030   
 O1328    O    -2.25000   -0.00094   0.00829   
 C1329    C    -2.25000   -0.00510   0.18544   
 H1330    H    -2.25000   -0.00851   0.14111   
 O1331    O    -2.00000   -0.06576   0.67240   
 C1332    C    -2.00000   -0.06991   0.84956   
 H1333    H    -2.00000   -0.07332   0.80523   
 O1334    O    -2.50000   -0.06576   0.67240   
 C1335    C    -2.50000   -0.06991   0.84956   
 H1336    H    -2.50000   -0.07332   0.80523   
 O1337    O    -2.25000   -0.08172   -0.28140  
 C1338    C    -2.25000   -0.08550   -0.10292  
 H1339    H    -2.25000   -0.08077   -0.11803  
 O1340    O    -2.50000   -0.05394   0.71478   
 C1341    C    -2.50000   -0.05773   0.89326   
 H1342    H    -2.50000   -0.05299   0.87815   
 O1343    O    -2.57395   -0.06216   0.42011   
 C1344    C    -2.62800   -0.07195   0.38322   
 H1345    H    -2.63005   -0.06744   0.35994   
 O1346    O    -2.32395   0.00265    -0.24401  
 C1347    C    -2.37800   -0.00713   -0.28090  
 H1348    H    -2.38005   -0.00262   -0.30418  
 O1349    O    -2.29205   -0.09821   -0.49133  
 C1350    C    -2.34510   -0.10826   -0.52556  
 H1351    H    -2.32515   -0.10945   -0.49040  
 O1352    O    -2.54205   -0.07043   0.50485   
 C1353    C    -2.59510   -0.08048   0.47061   
 H1354    H    -2.57515   -0.08167   0.50578   
 O1355    O    -2.04205   -0.07043   0.50485   
 C1356    C    -2.09510   -0.08048   0.47061   
 H1357    H    -2.07515   -0.08167   0.50578   
 O1358    O    -2.42605   -0.13918   0.14390   
 C1359    C    -2.37200   -0.12932   0.17747   
 H1360    H    -2.36995   -0.13220   0.12770   
 O1361    O    -2.17605   -0.11140   1.14008   
 C1362    C    -2.12200   -0.06450   -0.48665  
 H1363    H    -2.11995   -0.06738   -0.53642  
 O1364    O    -2.42605   -0.04659   0.47596   
 C1365    C    -2.37200   -0.03673   0.50953   
 H1366    H    -2.36995   -0.03961   0.45975   
 O1367    O    -2.70795   -0.07082   -0.39310  
 C1368    C    -2.65490   -0.06085   -0.35555  
 H1369    H    -2.67485   -0.06128   -0.31766  
 O1370    O    -2.45795   -0.04304   0.60307   
 C1371    C    -2.40490   -0.03307   0.64063   
 H1372    H    -2.42485   -0.03351   0.67851   
 O1373    O    -2.45795   -0.07043   0.50485   
 C1374    C    -2.40490   -0.08048   0.47061   
 H1375    H    -2.42485   -0.08167   0.50578   
 O1376    O    -2.70795   -0.00562   -0.15927  
 C1377    C    -2.65490   -0.01566   -0.19350  
 H1378    H    -2.67485   -0.01686   -0.15834  
 O1379    O    -2.17605   -0.03438   1.41628   
 C1380    C    -2.12200   -0.04417   1.37939   
 H1381    H    -2.11995   -0.03966   1.35611   
 O1382    O    -2.42605   0.03043    0.75217   
 C1383    C    -2.37200   0.02064    0.71527   
 H1384    H    -2.36995   0.02515    0.69200   
 O1385    O    -2.42605   -0.06216   0.42011   
 C1386    C    -2.37200   -0.07195   0.38322   
 H1387    H    -2.36995   -0.06744   0.35994   
 O1388    O    -2.32395   -0.07436   -0.52022  
 C1389    C    -2.37800   -0.06450   -0.48665  
 H1390    H    -2.38005   -0.06738   -0.53642  
 O1391    O    -2.57395   -0.04659   0.47596   
 C1392    C    -2.62800   -0.03673   0.50953   
 H1393    H    -2.63005   -0.03961   0.45975   
 O1394    O    -2.04205   -0.04304   0.60307   
 C1395    C    -2.09510   -0.03307   0.64063   
 H1396    H    -2.07515   -0.03351   0.67851   
 O1397    O    -2.29205   0.02177    -0.06105  
 C1398    C    -2.34510   -0.00529   1.63680   
 H1399    H    -2.32515   -0.00573   1.67469   
 O1400    O    -2.54205   -0.04304   0.60307   
 C1401    C    -2.59510   -0.03307   0.64063   
 H1402    H    -2.57515   -0.03351   0.67851   
 O1403    O    -2.53190   -0.04133   -0.13656  
 C1404    C    -2.53290   -0.04530   0.04126   
 H1405    H    -2.55490   -0.04464   0.01154   
 O1406    O    -2.28190   -0.10615   0.52756   
 C1407    C    -2.28290   -0.11011   0.70538   
 H1408    H    -2.30490   -0.10945   0.67566   
 O1409    O    -1.96810   -0.04133   -0.13656  
 C1410    C    -1.96710   -0.04530   0.04126   
 H1411    H    -1.94510   -0.04464   0.01154   
 O1412    O    -2.21810   -0.01356   0.85962   
 C1413    C    -2.21710   -0.01752   1.03744   
 H1414    H    -2.19510   -0.01686   1.00772   
 O1415    O    -2.46810   -0.04133   -0.13656  
 C1416    C    -2.46710   -0.04530   0.04126   
 H1417    H    -2.44510   -0.04464   0.01154   
 O1418    O    -2.25000   -0.10346   0.12119   
 C1419    C    -2.25000   -0.09968   -0.05729  
 H1420    H    -2.25000   -0.10442   -0.04219  
 O1421    O    -2.50000   -0.07569   1.11736   
 C1422    C    -2.50000   -0.07190   0.93888   
 H1423    H    -2.50000   -0.07664   0.95399   
 O1424    O    -2.25000   0.00094    0.49562   
 C1425    C    -2.25000   0.00510    0.31846   
 H1426    H    -2.25000   0.00851    0.36279   
 O1427    O    -2.00000   -0.06387   1.15973   
 C1428    C    -2.00000   -0.05972   0.98258   
 H1429    H    -2.00000   -0.05631   1.02691   
 O1430    O    -2.50000   -0.06387   1.15973   
 C1431    C    -2.50000   -0.05972   0.98258   
 H1432    H    -2.50000   -0.05631   1.02691   
 O1433    O    -2.42605   -0.04601   -0.30411  
 C1434    C    -2.37200   -0.05587   -0.33768  
 H1435    H    -2.36995   -0.05299   -0.28791  
 O1436    O    -2.67605   -0.01823   0.69206   
 C1437    C    -2.62200   -0.02809   0.65849   
 H1438    H    -2.61995   -0.02521   0.70827   
 O1439    O    -2.20795   -0.02177   0.56495   
 C1440    C    -2.15490   -0.03174   0.52739   
 H1441    H    -2.17485   -0.03131   0.48951   
 O1442    O    -2.45795   0.00601    1.56113   
 C1443    C    -2.40490   -0.00397   1.52357   
 H1444    H    -2.42485   -0.00353   1.48568   
 O1445    O    -2.70795   -0.02177   0.56495   
 C1446    C    -2.65490   -0.03174   0.52739   
 H1447    H    -2.67485   -0.03131   0.48951   
 O1448    O    -2.07395   -0.06747   1.41203   
 C1449    C    -2.12800   -0.05768   1.44892   
 H1450    H    -2.13005   -0.06219   1.47220   
 O1451    O    -2.32395   -0.00265   0.74791   
 C1452    C    -2.37800   0.00713    0.78481   
 H1453    H    -2.38005   0.00262    0.80808   
 O1454    O    -2.32395   -0.09525   0.41586   
 C1455    C    -2.37800   -0.08546   0.45275   
 H1456    H    -2.38005   -0.08997   0.47603   
 O1457    O    -2.29205   -0.08698   0.33112   
 C1458    C    -2.34510   -0.07693   0.36535   
 H1459    H    -2.32515   -0.07574   0.33019   
 O1460    O    -2.54205   -0.02216   -0.33300  
 C1461    C    -2.59510   -0.01211   -0.29877  
 H1462    H    -2.57515   -0.01092   -0.33393  
 O1463    O    -2.54205   -0.04955   -0.43122  
 C1464    C    -2.59510   -0.05952   -0.46878  
 H1465    H    -2.57515   -0.05909   -0.50667  
 O1466    O    -2.29205   -0.02177   0.56495   
 C1467    C    -2.34510   -0.03174   0.52739   
 H1468    H    -2.32515   -0.03131   0.48951   
 O1469    O    -2.32395   -0.11082   0.36000   
 C1470    C    -2.37800   -0.12068   0.32643   
 H1471    H    -2.38005   -0.11780   0.37621   
 O1472    O    -2.07395   -0.04601   -0.30411  
 C1473    C    -2.12800   -0.05587   -0.33768  
 H1474    H    -2.13005   -0.05299   -0.28791  
 O1475    O    -2.32395   -0.01823   0.69206   
 C1476    C    -2.37800   -0.02809   0.65849   
 H1477    H    -2.38005   -0.02521   0.70827   
 O1478    O    -2.67605   -0.09525   0.41586   
 C1479    C    -2.62200   -0.08546   0.45275   
 H1480    H    -2.61995   -0.08997   0.47603   
 O1481    O    -2.42605   -0.03043   -0.24826  
 C1482    C    -2.37200   -0.02064   -0.21137  
 H1483    H    -2.36995   -0.02515   -0.18809  
 O1484    O    -2.45795   -0.11475   -0.66506  
 C1485    C    -2.40490   -0.10471   -0.63083  
 H1486    H    -2.42485   -0.10351   -0.66599  
 O1487    O    -2.70795   -0.08698   0.33112   
 C1488    C    -2.65490   -0.07693   0.36535   
 H1489    H    -2.67485   -0.07574   0.33019   
 O1490    O    -2.20795   -0.08698   0.33112   
 C1491    C    -2.15490   -0.07693   0.36535   
 H1492    H    -2.17485   -0.07574   0.33019   
 O1493    O    -2.03190   -0.04133   -0.13656  
 C1494    C    -2.03290   -0.04530   0.04126   
 H1495    H    -2.05490   -0.04464   0.01154   
 O1496    O    -2.28190   -0.01356   0.85962   
 C1497    C    -2.28290   -0.01752   1.03744   
 H1498    H    -2.30490   -0.01686   1.00772   
 O1499    O    -2.21810   -0.10615   0.52756   
 C1500    C    -2.21710   -0.11011   0.70538   
 H1501    H    -2.19510   -0.10945   0.67566   
 O1502    O    -2.25000   -0.09165   0.16356   
 C1503    C    -2.25000   -0.08750   -0.01359  
 H1504    H    -2.25000   -0.08409   0.03073   
 O1505    O    -2.25000   -0.01087   0.45325   
 C1506    C    -2.25000   -0.00709   0.27476   
 H1507    H    -2.25000   -0.01183   0.28987   
 O1508    O    -2.00000   -0.07569   1.11736   
 C1509    C    -2.00000   -0.07190   0.93888   
 H1510    H    -2.00000   -0.07664   0.95399   
 O1511    O    -2.42605   -0.12302   -0.58032  
 C1512    C    -2.37200   -0.11324   -0.54343  
 H1513    H    -2.36995   -0.11775   -0.52015  
 O1514    O    -2.17605   -0.09525   0.41586   
 C1515    C    -2.12200   -0.08546   0.45275   
 H1516    H    -2.11995   -0.08997   0.47603   
 O1517    O    -2.45795   -0.02216   -0.33300  
 C1518    C    -2.40490   -0.01211   -0.29877  
 H1519    H    -2.42485   -0.01092   -0.33393  
 O1520    O    -2.57395   -0.04601   -0.30411  
 C1521    C    -2.62800   -0.05587   -0.33768  
 H1522    H    -2.63005   -0.05299   -0.28791  
 O1523    O    -2.29205   -0.11436   0.23289   
 C1524    C    -2.34510   -0.12434   0.19534   
 H1525    H    -2.32515   -0.12390   0.15745   
 O1526    O    -2.04205   -0.04955   -0.43122  
 C1527    C    -2.09510   -0.05952   -0.46878  
 H1528    H    -2.07515   -0.05909   -0.50667  
 O1529    O    -2.04205   -0.05920   1.32729   
 C1530    C    -2.09510   -0.04915   1.36153   
 H1531    H    -2.07515   -0.04796   1.32636   
 O1532    O    -2.29205   0.00562    0.66317   
 C1533    C    -2.34510   0.01566    0.69741   
 H1534    H    -2.32515   0.01686    0.66224   
 O1535    O    -2.57395   -0.03043   -0.24826  
 C1536    C    -2.62800   -0.02064   -0.21137  
 H1537    H    -2.63005   -0.02515   -0.18809  
 O1538    O    -2.17605   -0.01823   0.69206   
 C1539    C    -2.12200   -0.02809   0.65849   
 H1540    H    -2.11995   -0.02521   0.70827   
 O1541    O    -2.42605   0.00955    1.68824   
 C1542    C    -2.37200   -0.00031   1.65467   
 H1543    H    -2.36995   0.00257    1.70444   
 O1544    O    -2.45795   -0.04955   -0.43122  
 C1545    C    -2.40490   -0.05952   -0.46878  
 H1546    H    -2.42485   -0.05909   -0.50667  
 O1547    O    -2.46810   -0.14385   -0.02366  
 C1548    C    -1.96710   -0.04729   0.13058   
 H1549    H    -1.94510   -0.04796   0.16030   
 O1550    O    -2.21810   -0.02348   1.30458   
 C1551    C    -2.21710   -0.01951   1.12676   
 H1552    H    -2.19510   -0.02018   1.15648   
 O1553    O    -2.28190   -0.11607   0.97252   
 C1554    C    -2.28290   -0.11211   0.79470   
 H1555    H    -2.30490   -0.11277   0.82442   
 O1556    O    -2.25000   0.01087    0.05066   
 C1557    C    -2.25000   0.00709    0.22914   
 H1558    H    -2.25000   0.01183    0.21403   
 O1559    O    -2.50000   -0.14654   0.38272   
 C1560    C    -2.00000   -0.05773   0.89326   
 H1561    H    -2.00000   -0.05299   0.87815   
 O1562    O    -2.25000   -0.09354   -0.32377  
 C1563    C    -2.25000   -0.09769   -0.14662  
 H1564    H    -2.25000   -0.10110   -0.19095  
 O1565    O    -2.07395   -0.04659   0.47596   
 C1566    C    -2.12800   -0.03673   0.50953   
 H1567    H    -2.13005   -0.03961   0.45975   
 O1568    O    -2.32395   -0.01881   1.47213   
 C1569    C    -2.37800   -0.00895   1.50571   
 H1570    H    -2.38005   -0.01183   1.45593   
 O1571    O    -2.29205   -0.07082   -0.39310  
 C1572    C    -2.34510   -0.06085   -0.35555  
 H1573    H    -2.32515   -0.06128   -0.31766  
 O1574    O    -2.67605   0.00265    -0.24401  
 C1575    C    -2.62200   -0.00713   -0.28090  
 H1576    H    -2.61995   -0.00262   -0.30418  
 O1577    O    -2.20795   -0.00562   -0.15927  
 C1578    C    -2.15490   -0.05270   1.46679   
 H1579    H    -2.17485   -0.05389   1.50195   
 O1580    O    -2.45795   0.02216    0.83691   
 C1581    C    -2.40490   0.01211    0.80267   
 H1582    H    -2.42485   0.01092    0.83784   
 O1583    O    -2.45795   -0.13564   0.27101   
 C1584    C    -2.40490   -0.12566   0.30857   
 H1585    H    -2.42485   -0.12610   0.34646   
 O1586    O    -2.20795   -0.07082   -0.39310  
 C1587    C    -2.15490   -0.06085   -0.35555  
 H1588    H    -2.17485   -0.06128   -0.31766  
 O1589    O    -2.67605   -0.07436   -0.52022  
 C1590    C    -2.62200   -0.06450   -0.48665  
 H1591    H    -2.61995   -0.06738   -0.53642  
 O1592    O    -2.32395   -0.12698   1.08422   
 C1593    C    -2.37800   -0.09973   -0.61296  
 H1594    H    -2.38005   -0.09522   -0.63624  
 O1595    O    -2.07395   -0.06216   0.42011   
 C1596    C    -2.12800   -0.07195   0.38322   
 H1597    H    -2.13005   -0.06744   0.35994   
 O1598    O    -2.29205   -0.00562   -0.15927  
 C1599    C    -2.34510   -0.01566   -0.19350  
 H1600    H    -2.32515   -0.01686   -0.15834  
 C1601    C    -2.50000   -0.05042   0.27071   
 C1602    C    -2.50000   -0.04829   0.17525   
 C1603    C    -2.25000   -0.11523   0.93483   
 C1604    C    -2.25000   -0.11310   0.83936   
 C1605    C    -2.00000   -0.05042   0.27071   
 C1606    C    -2.00000   -0.04829   0.17525   
 C1607    C    -2.25000   -0.02264   1.26689   
 C1608    C    -2.25000   -0.02051   1.17142   
 C1609    C    -2.25000   0.00412    0.06716   
 C1610    C    -2.25000   0.00199    0.16263   
 C1611    C    -2.00000   -0.06069   0.73128   
 C1612    C    -2.00000   -0.06282   0.82675   
 C1613    C    -2.50000   -0.06069   0.73128   
 C1614    C    -2.50000   -0.06282   0.82675   
 C1615    C    -2.25000   -0.08847   -0.26490  
 C1616    C    -2.25000   -0.09060   -0.16943  
 C1617    C    -2.56935   -0.06840   0.45494   
 C1618    C    -2.59810   -0.07372   0.43585   
 C1619    C    -2.31935   -0.00358   -0.20918  
 C1620    C    -2.34810   -0.00891   -0.22827  
 C1621    C    -2.31935   -0.09618   -0.54124  
 C1622    C    -2.34810   -0.10150   -0.56033  
 C1623    C    -2.06935   -0.06840   0.45494   
 C1624    C    -2.09810   -0.07372   0.43585   
 C1625    C    -2.43065   -0.13531   0.21499   
 C1626    C    -2.40190   -0.12998   0.23409   
 C1627    C    -2.18065   -0.07049   -0.44912  
 C1628    C    -2.15190   -0.06517   -0.43003  
 C1629    C    -2.43065   -0.04271   0.54705   
 C1630    C    -2.40190   -0.03739   0.56615   
 C1631    C    -2.68065   -0.07049   -0.44912  
 C1632    C    -2.65190   -0.06517   -0.43003  
 C1633    C    -2.43065   -0.06840   0.45494   
 C1634    C    -2.40190   -0.07372   0.43585   
 C1635    C    -2.68065   -0.00358   -0.20918  
 C1636    C    -2.65190   -0.00891   -0.22827  
 C1637    C    -2.18065   -0.04062   1.45112   
 C1638    C    -2.15190   -0.04594   1.43202   
 C1639    C    -2.43065   0.02419    0.78700   
 C1640    C    -2.40190   0.01887    0.76790   
 C1641    C    -2.31935   -0.07049   -0.44912  
 C1642    C    -2.34810   -0.06517   -0.43003  
 C1643    C    -2.56935   -0.04271   0.54705   
 C1644    C    -2.59810   -0.03739   0.56615   
 C1645    C    -2.06935   -0.04271   0.54705   
 C1646    C    -2.09810   -0.03739   0.56615   
 C1647    C    -2.31935   -0.01494   1.54323   
 C1648    C    -2.34810   -0.00961   1.56232   
 C1649    C    -2.50000   -0.04217   -0.09887  
 C1650    C    -2.50000   -0.04430   -0.00340  
 C1651    C    -2.25000   -0.10699   0.56525   
 C1652    C    -2.25000   -0.10912   0.66072   
 C1653    C    -2.00000   -0.04217   -0.09887  
 C1654    C    -2.00000   -0.04430   -0.00340  
 C1655    C    -2.25000   -0.01440   0.89731   
 C1656    C    -2.25000   -0.01653   0.99277   
 C1657    C    -2.25000   -0.09671   0.10468   
 C1658    C    -2.25000   -0.09459   0.00922   
 C1659    C    -2.50000   -0.06894   1.10086   
 C1660    C    -2.50000   -0.06681   1.00539   
 C1661    C    -2.25000   -0.00412   0.43674   
 C1662    C    -2.25000   -0.00199   0.34128   
 C1663    C    -2.00000   -0.06894   1.10086   
 C1664    C    -2.00000   -0.06681   1.00539   
 C1665    C    -2.43065   -0.04988   -0.37521  
 C1666    C    -2.40190   -0.05520   -0.39430  
 C1667    C    -2.68065   -0.02210   0.62097   
 C1668    C    -2.65190   -0.02743   0.60188   
 C1669    C    -2.18065   -0.02210   0.62097   
 C1670    C    -2.15190   -0.02743   0.60188   
 C1671    C    -2.43065   0.00568    1.61714   
 C1672    C    -2.40190   0.00035    1.59805   
 C1673    C    -2.06935   -0.06123   1.37720   
 C1674    C    -2.09810   -0.05591   1.39629   
 C1675    C    -2.31935   0.00358    0.71308   
 C1676    C    -2.34810   0.00891    0.73218   
 C1677    C    -2.31935   -0.08901   0.38102   
 C1678    C    -2.34810   -0.08369   0.40012   
 C1679    C    -2.56935   -0.02419   -0.28309  
 C1680    C    -2.59810   -0.01887   -0.26400  
 C1681    C    -2.56935   -0.04988   -0.37521  
 C1682    C    -2.59810   -0.05520   -0.39430  
 C1683    C    -2.31935   -0.02210   0.62097   
 C1684    C    -2.34810   -0.02743   0.60188   
 C1685    C    -2.31935   -0.11469   0.28891   
 C1686    C    -2.34810   -0.12002   0.26982   
 C1687    C    -2.06935   -0.04988   -0.37521  
 C1688    C    -2.09810   -0.05520   -0.39430  
 C1689    C    -2.68065   -0.08901   0.38102   
 C1690    C    -2.65190   -0.08369   0.40012   
 C1691    C    -2.43065   -0.02419   -0.28309  
 C1692    C    -2.40190   -0.01887   -0.26400  
 C1693    C    -2.43065   -0.11679   -0.61515  
 C1694    C    -2.40190   -0.11146   -0.59606  
 C1695    C    -2.18065   -0.08901   0.38102   
 C1696    C    -2.15190   -0.08369   0.40012   
 Zn1697   Zn   1.04340    -0.55395   0.42894   
 Zn1698   Zn   1.29340    -0.61876   1.09306   
 Zn1699   Zn   1.45660    -0.55395   0.42894   
 Zn1700   Zn   1.20660    -0.52617   1.42511   
 Zn1701   Zn   0.95660    -0.55395   0.42894   
 Zn1702   Zn   1.25000    -0.50039   -0.11989  
 Zn1703   Zn   1.50000    -0.56520   0.54423   
 Zn1704   Zn   1.00000    -0.56520   0.54423   
 Zn1705   Zn   1.25000    -0.57690   -0.39430  
 Zn1706   Zn   1.00000    -0.54913   0.60188   
 Zn1707   Zn   1.25000    -0.59298   -0.45195  
 Zn1708   Zn   1.04340    -0.64654   0.09688   
 Zn1709   Zn   1.25000    -0.48431   -0.06224  
 Zn1710   Zn   1.29340    -0.52617   1.42511   
 Zn1711   Zn   1.20660    -0.61876   1.09306   
 Zn1712   Zn   1.00000    -0.64172   0.26982   
 Zn1713   Zn   0.95660    -0.53864   -0.25709  
 Zn1714   Zn   1.04340    -0.63124   -0.58915  
 Zn1715   Zn   1.29340    -0.51087   0.73908   
 Zn1716   Zn   1.04340    -0.53864   -0.25709  
 Zn1717   Zn   1.25000    -0.60828   0.23409   
 Zn1718   Zn   1.25000    -0.49961   0.62379   
 Zn1719   Zn   1.00000    -0.52739   -0.37238  
 Zn1720   Zn   1.29340    -0.60346   0.40702   
 Zn1721   Zn   1.25000    -0.51569   0.56615   
 Zn1722   Zn   1.50000    -0.54347   -0.43003  
 Zn1723   Zn   1.45660    -0.53864   -0.25709  
 Zn1724   Zn   1.20660    -0.51087   0.73908   
 Zn1725   Zn   1.20660    -0.60346   0.40702   
 Zn1726   Zn   1.25000    -0.59221   0.29173   
 Zn1727   Zn   1.00000    -0.54347   -0.43003  
 Zn1728   Zn   1.00000    -0.61999   -0.70444  
 O1729    O    1.00000    -0.55556   0.50100   
 O1730    O    1.50000    -0.55556   0.50100   
 O1731    O    1.25000    -0.52778   1.49717   
 O1732    O    1.25000    -0.58333   -0.49518  
 O1733    O    1.00000    -0.53704   -0.32915  
 O1734    O    1.00000    -0.62963   -0.66121  
 O1735    O    1.25000    -0.50926   0.66703   
 O1736    O    1.25000    -0.60185   0.33497   
 O1737    O    1.03190    -0.55126   0.30840   
 C1738    C    1.03290    -0.54729   0.13058   
 H1739    H    1.05490    -0.54796   0.16030   
 O1740    O    1.28190    -0.61607   0.97252   
 C1741    C    1.28290    -0.61211   0.79470   
 H1742    H    1.30490    -0.61277   0.82442   
 O1743    O    1.46810    -0.55126   0.30840   
 C1744    C    1.46710    -0.54729   0.13058   
 H1745    H    1.44510    -0.54796   0.16030   
 O1746    O    1.21810    -0.52348   1.30458   
 C1747    C    1.21710    -0.51951   1.12676   
 H1748    H    1.19510    -0.52018   1.15648   
 O1749    O    0.96810    -0.55126   0.30840   
 C1750    C    0.96710    -0.54729   0.13058   
 H1751    H    0.94510    -0.54796   0.16030   
 O1752    O    1.25000    -0.50094   0.00829   
 C1753    C    1.25000    -0.50510   0.18544   
 H1754    H    1.25000    -0.50851   0.14111   
 O1755    O    1.50000    -0.56576   0.67240   
 C1756    C    1.50000    -0.56991   0.84956   
 H1757    H    1.50000    -0.57332   0.80523   
 O1758    O    1.00000    -0.56576   0.67240   
 C1759    C    1.00000    -0.56991   0.84956   
 H1760    H    1.00000    -0.57332   0.80523   
 O1761    O    1.25000    -0.58172   -0.28140  
 C1762    C    1.25000    -0.58550   -0.10292  
 H1763    H    1.25000    -0.58077   -0.11803  
 O1764    O    1.00000    -0.55394   0.71478   
 C1765    C    1.00000    -0.55773   0.89326   
 H1766    H    1.00000    -0.55299   0.87815   
 O1767    O    0.92605    -0.56216   0.42011   
 C1768    C    0.87200    -0.57195   0.38322   
 H1769    H    0.86995    -0.56744   0.35994   
 O1770    O    1.17605    -0.49735   -0.24401  
 C1771    C    1.12200    -0.50713   -0.28090  
 H1772    H    1.11995    -0.50262   -0.30418  
 O1773    O    1.20795    -0.59821   -0.49133  
 C1774    C    1.15490    -0.60826   -0.52556  
 H1775    H    1.17485    -0.60945   -0.49040  
 O1776    O    0.95795    -0.57043   0.50485   
 C1777    C    0.90490    -0.58048   0.47061   
 H1778    H    0.92485    -0.58167   0.50578   
 O1779    O    1.45795    -0.57043   0.50485   
 C1780    C    1.40490    -0.58048   0.47061   
 H1781    H    1.42485    -0.58167   0.50578   
 O1782    O    1.07395    -0.63918   0.14390   
 C1783    C    1.12800    -0.62932   0.17747   
 H1784    H    1.13005    -0.63220   0.12770   
 O1785    O    1.32395    -0.61140   1.14008   
 C1786    C    1.37800    -0.56450   -0.48665  
 H1787    H    1.38005    -0.56738   -0.53642  
 O1788    O    1.07395    -0.54659   0.47596   
 C1789    C    1.12800    -0.53673   0.50953   
 H1790    H    1.13005    -0.53961   0.45975   
 O1791    O    0.79205    -0.57082   -0.39310  
 C1792    C    0.84510    -0.56085   -0.35555  
 H1793    H    0.82515    -0.56128   -0.31766  
 O1794    O    1.04205    -0.54304   0.60307   
 C1795    C    1.09510    -0.53307   0.64063   
 H1796    H    1.07515    -0.53351   0.67851   
 O1797    O    1.04205    -0.57043   0.50485   
 C1798    C    1.09510    -0.58048   0.47061   
 H1799    H    1.07515    -0.58167   0.50578   
 O1800    O    0.79205    -0.50562   -0.15927  
 C1801    C    0.84510    -0.51566   -0.19350  
 H1802    H    0.82515    -0.51686   -0.15834  
 O1803    O    1.32395    -0.53438   1.41628   
 C1804    C    1.37800    -0.54417   1.37939   
 H1805    H    1.38005    -0.53966   1.35611   
 O1806    O    1.07395    -0.46957   0.75217   
 C1807    C    1.12800    -0.47936   0.71527   
 H1808    H    1.13005    -0.47485   0.69200   
 O1809    O    1.07395    -0.56216   0.42011   
 C1810    C    1.12800    -0.57195   0.38322   
 H1811    H    1.13005    -0.56744   0.35994   
 O1812    O    1.17605    -0.57436   -0.52022  
 C1813    C    1.12200    -0.56450   -0.48665  
 H1814    H    1.11995    -0.56738   -0.53642  
 O1815    O    0.92605    -0.54659   0.47596   
 C1816    C    0.87200    -0.53673   0.50953   
 H1817    H    0.86995    -0.53961   0.45975   
 O1818    O    1.45795    -0.54304   0.60307   
 C1819    C    1.40490    -0.53307   0.64063   
 H1820    H    1.42485    -0.53351   0.67851   
 O1821    O    1.20795    -0.47823   -0.06105  
 C1822    C    1.15490    -0.50529   1.63680   
 H1823    H    1.17485    -0.50573   1.67469   
 O1824    O    0.95795    -0.54304   0.60307   
 C1825    C    0.90490    -0.53307   0.64063   
 H1826    H    0.92485    -0.53351   0.67851   
 O1827    O    0.96810    -0.54133   -0.13656  
 C1828    C    0.96710    -0.54530   0.04126   
 H1829    H    0.94510    -0.54464   0.01154   
 O1830    O    1.21810    -0.60615   0.52756   
 C1831    C    1.21710    -0.61011   0.70538   
 H1832    H    1.19510    -0.60945   0.67566   
 O1833    O    1.53190    -0.54133   -0.13656  
 C1834    C    1.53290    -0.54530   0.04126   
 H1835    H    1.55490    -0.54464   0.01154   
 O1836    O    1.28190    -0.51356   0.85962   
 C1837    C    1.28290    -0.51752   1.03744   
 H1838    H    1.30490    -0.51686   1.00772   
 O1839    O    1.03190    -0.54133   -0.13656  
 C1840    C    1.03290    -0.54530   0.04126   
 H1841    H    1.05490    -0.54464   0.01154   
 O1842    O    1.25000    -0.60346   0.12119   
 C1843    C    1.25000    -0.59968   -0.05729  
 H1844    H    1.25000    -0.60442   -0.04219  
 O1845    O    1.00000    -0.57569   1.11736   
 C1846    C    1.00000    -0.57190   0.93888   
 H1847    H    1.00000    -0.57664   0.95399   
 O1848    O    1.25000    -0.49906   0.49562   
 C1849    C    1.25000    -0.49490   0.31846   
 H1850    H    1.25000    -0.49149   0.36279   
 O1851    O    1.50000    -0.56387   1.15973   
 C1852    C    1.50000    -0.55972   0.98258   
 H1853    H    1.50000    -0.55631   1.02691   
 O1854    O    1.00000    -0.56387   1.15973   
 C1855    C    1.00000    -0.55972   0.98258   
 H1856    H    1.00000    -0.55631   1.02691   
 O1857    O    1.07395    -0.54601   -0.30411  
 C1858    C    1.12800    -0.55587   -0.33768  
 H1859    H    1.13005    -0.55299   -0.28791  
 O1860    O    0.82395    -0.51823   0.69206   
 C1861    C    0.87800    -0.52809   0.65849   
 H1862    H    0.88005    -0.52521   0.70827   
 O1863    O    1.29205    -0.52177   0.56495   
 C1864    C    1.34510    -0.53174   0.52739   
 H1865    H    1.32515    -0.53131   0.48951   
 O1866    O    1.04205    -0.49399   1.56113   
 C1867    C    1.09510    -0.50397   1.52357   
 H1868    H    1.07515    -0.50353   1.48568   
 O1869    O    0.79205    -0.52177   0.56495   
 C1870    C    0.84510    -0.53174   0.52739   
 H1871    H    0.82515    -0.53131   0.48951   
 O1872    O    1.42605    -0.56747   1.41203   
 C1873    C    1.37200    -0.55768   1.44892   
 H1874    H    1.36995    -0.56219   1.47220   
 O1875    O    1.17605    -0.50265   0.74791   
 C1876    C    1.12200    -0.49287   0.78481   
 H1877    H    1.11995    -0.49738   0.80808   
 O1878    O    1.17605    -0.59525   0.41586   
 C1879    C    1.12200    -0.58546   0.45275   
 H1880    H    1.11995    -0.58997   0.47603   
 O1881    O    1.20795    -0.58698   0.33112   
 C1882    C    1.15490    -0.57693   0.36535   
 H1883    H    1.17485    -0.57574   0.33019   
 O1884    O    0.95795    -0.52216   -0.33300  
 C1885    C    0.90490    -0.51211   -0.29877  
 H1886    H    0.92485    -0.51092   -0.33393  
 O1887    O    0.95795    -0.54955   -0.43122  
 C1888    C    0.90490    -0.55952   -0.46878  
 H1889    H    0.92485    -0.55909   -0.50667  
 O1890    O    1.20795    -0.52177   0.56495   
 C1891    C    1.15490    -0.53174   0.52739   
 H1892    H    1.17485    -0.53131   0.48951   
 O1893    O    1.17605    -0.61082   0.36000   
 C1894    C    1.12200    -0.62068   0.32643   
 H1895    H    1.11995    -0.61780   0.37621   
 O1896    O    1.42605    -0.54601   -0.30411  
 C1897    C    1.37200    -0.55587   -0.33768  
 H1898    H    1.36995    -0.55299   -0.28791  
 O1899    O    1.17605    -0.51823   0.69206   
 C1900    C    1.12200    -0.52809   0.65849   
 H1901    H    1.11995    -0.52521   0.70827   
 O1902    O    0.82395    -0.59525   0.41586   
 C1903    C    0.87800    -0.58546   0.45275   
 H1904    H    0.88005    -0.58997   0.47603   
 O1905    O    1.07395    -0.53043   -0.24826  
 C1906    C    1.12800    -0.52064   -0.21137  
 H1907    H    1.13005    -0.52515   -0.18809  
 O1908    O    1.04205    -0.61475   -0.66506  
 C1909    C    1.09510    -0.60471   -0.63083  
 H1910    H    1.07515    -0.60351   -0.66599  
 O1911    O    0.79205    -0.58698   0.33112   
 C1912    C    0.84510    -0.57693   0.36535   
 H1913    H    0.82515    -0.57574   0.33019   
 O1914    O    1.29205    -0.58698   0.33112   
 C1915    C    1.34510    -0.57693   0.36535   
 H1916    H    1.32515    -0.57574   0.33019   
 O1917    O    1.46810    -0.54133   -0.13656  
 C1918    C    1.46710    -0.54530   0.04126   
 H1919    H    1.44510    -0.54464   0.01154   
 O1920    O    1.21810    -0.51356   0.85962   
 C1921    C    1.21710    -0.51752   1.03744   
 H1922    H    1.19510    -0.51686   1.00772   
 O1923    O    1.28190    -0.60615   0.52756   
 C1924    C    1.28290    -0.61011   0.70538   
 H1925    H    1.30490    -0.60945   0.67566   
 O1926    O    1.25000    -0.59165   0.16356   
 C1927    C    1.25000    -0.58750   -0.01359  
 H1928    H    1.25000    -0.58409   0.03073   
 O1929    O    1.25000    -0.51087   0.45325   
 C1930    C    1.25000    -0.50709   0.27476   
 H1931    H    1.25000    -0.51183   0.28987   
 O1932    O    1.50000    -0.57569   1.11736   
 C1933    C    1.50000    -0.57190   0.93888   
 H1934    H    1.50000    -0.57664   0.95399   
 O1935    O    1.07395    -0.62302   -0.58032  
 C1936    C    1.12800    -0.61324   -0.54343  
 H1937    H    1.13005    -0.61775   -0.52015  
 O1938    O    1.32395    -0.59525   0.41586   
 C1939    C    1.37800    -0.58546   0.45275   
 H1940    H    1.38005    -0.58997   0.47603   
 O1941    O    1.04205    -0.52216   -0.33300  
 C1942    C    1.09510    -0.51211   -0.29877  
 H1943    H    1.07515    -0.51092   -0.33393  
 O1944    O    0.92605    -0.54601   -0.30411  
 C1945    C    0.87200    -0.55587   -0.33768  
 H1946    H    0.86995    -0.55299   -0.28791  
 O1947    O    1.20795    -0.61436   0.23289   
 C1948    C    1.15490    -0.62434   0.19534   
 H1949    H    1.17485    -0.62390   0.15745   
 O1950    O    1.45795    -0.54955   -0.43122  
 C1951    C    1.40490    -0.55952   -0.46878  
 H1952    H    1.42485    -0.55909   -0.50667  
 O1953    O    1.45795    -0.55920   1.32729   
 C1954    C    1.40490    -0.54915   1.36153   
 H1955    H    1.42485    -0.54796   1.32636   
 O1956    O    1.20795    -0.49438   0.66317   
 C1957    C    1.15490    -0.48434   0.69741   
 H1958    H    1.17485    -0.48314   0.66224   
 O1959    O    0.92605    -0.53043   -0.24826  
 C1960    C    0.87200    -0.52064   -0.21137  
 H1961    H    0.86995    -0.52515   -0.18809  
 O1962    O    1.32395    -0.51823   0.69206   
 C1963    C    1.37800    -0.52809   0.65849   
 H1964    H    1.38005    -0.52521   0.70827   
 O1965    O    1.07395    -0.49045   1.68824   
 C1966    C    1.12800    -0.50031   1.65467   
 H1967    H    0.92172    0.49009    -0.35094  
 O1968    O    1.04205    -0.54955   -0.43122  
 C1969    C    1.09510    -0.55952   -0.46878  
 H1970    H    1.07515    -0.55909   -0.50667  
 O1971    O    1.03190    -0.64385   -0.02366  
 C1972    C    1.53290    -0.54729   0.13058   
 H1973    H    1.55490    -0.54796   0.16030   
 O1974    O    1.28190    -0.52348   1.30458   
 C1975    C    1.28290    -0.51951   1.12676   
 H1976    H    1.30490    -0.52018   1.15648   
 O1977    O    1.21810    -0.61607   0.97252   
 C1978    C    1.21710    -0.61211   0.79470   
 H1979    H    1.19510    -0.61277   0.82442   
 O1980    O    1.25000    -0.48913   0.05066   
 C1981    C    1.25000    -0.49291   0.22914   
 H1982    H    1.25000    -0.48817   0.21403   
 O1983    O    1.00000    -0.64654   0.38272   
 C1984    C    1.50000    -0.55773   0.89326   
 H1985    H    1.50000    -0.55299   0.87815   
 O1986    O    1.25000    -0.59354   -0.32377  
 C1987    C    1.25000    -0.59769   -0.14662  
 H1988    H    1.25000    -0.60110   -0.19095  
 O1989    O    1.42605    -0.54659   0.47596   
 C1990    C    1.37200    -0.53673   0.50953   
 H1991    H    1.36995    -0.53961   0.45975   
 O1992    O    1.17605    -0.51881   1.47213   
 C1993    C    1.12200    -0.50895   1.50571   
 H1994    H    1.11995    -0.51183   1.45593   
 O1995    O    1.20795    -0.57082   -0.39310  
 C1996    C    1.15490    -0.56085   -0.35555  
 H1997    H    1.17485    -0.56128   -0.31766  
 O1998    O    0.82395    -0.49735   -0.24401  
 C1999    C    0.87800    -0.50713   -0.28090  
 H2000    H    0.88005    -0.50262   -0.30418  
 O2001    O    1.29205    -0.50562   -0.15927  
 C2002    C    1.34510    -0.55270   1.46679   
 H2003    H    1.11682    0.43362    -0.55343  
 O2004    O    1.04205    -0.47784   0.83691   
 C2005    C    1.09510    -0.48789   0.80267   
 H2006    H    1.07515    -0.48908   0.83784   
 O2007    O    1.04205    -0.63564   0.27101   
 C2008    C    1.09510    -0.62566   0.30857   
 H2009    H    1.07515    -0.62610   0.34646   
 O2010    O    1.29205    -0.57082   -0.39310  
 C2011    C    1.34510    -0.56085   -0.35555  
 H2012    H    1.32515    -0.56128   -0.31766  
 O2013    O    0.82395    -0.57436   -0.52022  
 C2014    C    0.87800    -0.56450   -0.48665  
 H2015    H    0.88005    -0.56738   -0.53642  
 O2016    O    1.17605    -0.62698   1.08422   
 C2017    C    1.12200    -0.59973   -0.61296  
 H2018    H    1.11995    -0.59522   -0.63624  
 O2019    O    1.42605    -0.56216   0.42011   
 C2020    C    1.37200    -0.57195   0.38322   
 H2021    H    1.36995    -0.56744   0.35994   
 O2022    O    1.20795    -0.50562   -0.15927  
 C2023    C    1.15490    -0.51566   -0.19350  
 H2024    H    1.17485    -0.51686   -0.15834  
 C2025    C    1.00000    -0.55042   0.27071   
 C2026    C    1.00000    -0.54829   0.17525   
 C2027    C    1.25000    -0.61523   0.93483   
 C2028    C    1.25000    -0.61310   0.83936   
 C2029    C    1.50000    -0.55042   0.27071   
 C2030    C    1.50000    -0.54829   0.17525   
 C2031    C    1.25000    -0.52264   1.26689   
 C2032    C    1.25000    -0.52051   1.17142   
 C2033    C    1.25000    -0.49588   0.06716   
 C2034    C    1.25000    -0.49801   0.16263   
 C2035    C    1.50000    -0.56069   0.73128   
 C2036    C    1.50000    -0.56282   0.82675   
 C2037    C    1.00000    -0.56069   0.73128   
 C2038    C    1.00000    -0.56282   0.82675   
 C2039    C    1.25000    -0.58847   -0.26490  
 C2040    C    1.25000    -0.59060   -0.16943  
 C2041    C    0.93065    -0.56840   0.45494   
 C2042    C    0.90190    -0.57372   0.43585   
 C2043    C    1.18065    -0.50358   -0.20918  
 C2044    C    1.15190    -0.50891   -0.22827  
 C2045    C    1.18065    -0.59618   -0.54124  
 C2046    C    1.15190    -0.60150   -0.56033  
 C2047    C    1.43065    -0.56840   0.45494   
 C2048    C    1.40190    -0.57372   0.43585   
 C2049    C    1.06935    -0.63531   0.21499   
 C2050    C    1.09810    -0.62998   0.23409   
 C2051    C    1.31935    -0.57049   -0.44912  
 C2052    C    1.34810    -0.56517   -0.43003  
 C2053    C    1.06935    -0.54271   0.54705   
 C2054    C    1.09810    -0.53739   0.56615   
 C2055    C    0.81935    -0.57049   -0.44912  
 C2056    C    0.84810    -0.56517   -0.43003  
 C2057    C    1.06935    -0.56840   0.45494   
 C2058    C    1.09810    -0.57372   0.43585   
 C2059    C    0.81935    -0.50358   -0.20918  
 C2060    C    0.84810    -0.50891   -0.22827  
 C2061    C    1.31935    -0.54062   1.45112   
 C2062    C    1.34810    -0.54594   1.43202   
 C2063    C    1.06935    -0.47581   0.78700   
 C2064    C    1.09810    -0.48113   0.76790   
 C2065    C    1.18065    -0.57049   -0.44912  
 C2066    C    1.15190    -0.56517   -0.43003  
 C2067    C    0.93065    -0.54271   0.54705   
 C2068    C    0.90190    -0.53739   0.56615   
 C2069    C    1.43065    -0.54271   0.54705   
 C2070    C    1.40190    -0.53739   0.56615   
 C2071    C    1.18065    -0.51494   1.54323   
 C2072    C    1.15190    -0.50961   1.56232   
 C2073    C    1.00000    -0.54217   -0.09887  
 C2074    C    1.00000    -0.54430   -0.00340  
 C2075    C    1.25000    -0.60699   0.56525   
 C2076    C    1.25000    -0.60912   0.66072   
 C2077    C    1.50000    -0.54217   -0.09887  
 C2078    C    1.50000    -0.54430   -0.00340  
 C2079    C    1.25000    -0.51440   0.89731   
 C2080    C    1.25000    -0.51653   0.99277   
 C2081    C    1.25000    -0.59671   0.10468   
 C2082    C    1.25000    -0.59459   0.00922   
 C2083    C    1.00000    -0.56894   1.10086   
 C2084    C    1.00000    -0.56681   1.00539   
 C2085    C    1.25000    -0.50412   0.43674   
 C2086    C    1.25000    -0.50199   0.34128   
 C2087    C    1.50000    -0.56894   1.10086   
 C2088    C    1.50000    -0.56681   1.00539   
 C2089    C    1.06935    -0.54988   -0.37521  
 C2090    C    1.09810    -0.55520   -0.39430  
 C2091    C    0.81935    -0.52210   0.62097   
 C2092    C    0.84810    -0.52743   0.60188   
 C2093    C    1.31935    -0.52210   0.62097   
 C2094    C    1.34810    -0.52743   0.60188   
 C2095    C    1.06935    -0.49432   1.61714   
 C2096    C    1.09810    -0.49965   1.59805   
 C2097    C    1.43065    -0.56123   1.37720   
 C2098    C    1.40190    -0.55591   1.39629   
 C2099    C    1.18065    -0.49642   0.71308   
 C2100    C    1.15190    -0.49109   0.73218   
 C2101    C    1.18065    -0.58901   0.38102   
 C2102    C    1.15190    -0.58369   0.40012   
 C2103    C    0.93065    -0.52419   -0.28309  
 C2104    C    0.90190    -0.51887   -0.26400  
 C2105    C    0.93065    -0.54988   -0.37521  
 C2106    C    0.90190    -0.55520   -0.39430  
 C2107    C    1.18065    -0.52210   0.62097   
 C2108    C    1.15190    -0.52743   0.60188   
 C2109    C    1.18065    -0.61469   0.28891   
 C2110    C    1.15190    -0.62002   0.26982   
 C2111    C    1.43065    -0.54988   -0.37521  
 C2112    C    1.40190    -0.55520   -0.39430  
 C2113    C    0.81935    -0.58901   0.38102   
 C2114    C    0.84810    -0.58369   0.40012   
 C2115    C    1.06935    -0.52419   -0.28309  
 C2116    C    1.09810    -0.51887   -0.26400  
 C2117    C    1.06935    -0.61679   -0.61515  
 C2118    C    1.09810    -0.61146   -0.59606  
 C2119    C    1.31935    -0.58901   0.38102   
 C2120    C    1.34810    -0.58369   0.40012   
 Zn2121   Zn   -1.45660   -0.05395   0.42894   
 Zn2122   Zn   -1.20660   -0.11876   1.09306   
 Zn2123   Zn   -1.04340   -0.05395   0.42894   
 Zn2124   Zn   -1.29340   -0.02617   1.42511   
 Zn2125   Zn   -1.54340   -0.05395   0.42894   
 Zn2126   Zn   -1.25000   -0.00039   -0.11989  
 Zn2127   Zn   -1.00000   -0.06520   0.54423   
 Zn2128   Zn   -1.50000   -0.06520   0.54423   
 Zn2129   Zn   -1.25000   -0.07690   -0.39430  
 Zn2130   Zn   -1.50000   -0.04913   0.60188   
 Zn2131   Zn   -1.25000   -0.09298   -0.45195  
 Zn2132   Zn   -1.45660   -0.14654   0.09688   
 Zn2133   Zn   -1.25000   0.01569    -0.06224  
 Zn2134   Zn   -1.20660   -0.02617   1.42511   
 Zn2135   Zn   -1.29340   -0.11876   1.09306   
 Zn2136   Zn   -1.50000   -0.14172   0.26982   
 Zn2137   Zn   -1.54340   -0.03864   -0.25709  
 Zn2138   Zn   -1.45660   -0.13124   -0.58915  
 Zn2139   Zn   -1.20660   -0.01087   0.73908   
 Zn2140   Zn   -1.45660   -0.03864   -0.25709  
 Zn2141   Zn   -1.25000   -0.10828   0.23409   
 Zn2142   Zn   -1.25000   0.00039    0.62379   
 Zn2143   Zn   -1.50000   -0.02739   -0.37238  
 Zn2144   Zn   -1.20660   -0.10346   0.40702   
 Zn2145   Zn   -1.25000   -0.01569   0.56615   
 Zn2146   Zn   -1.00000   -0.04347   -0.43003  
 Zn2147   Zn   -1.04340   -0.03864   -0.25709  
 Zn2148   Zn   -1.29340   -0.01087   0.73908   
 Zn2149   Zn   -1.29340   -0.10346   0.40702   
 Zn2150   Zn   -1.25000   -0.09221   0.29173   
 Zn2151   Zn   -1.50000   -0.04347   -0.43003  
 Zn2152   Zn   -1.50000   -0.11999   -0.70444  
 O2153    O    -1.50000   -0.05556   0.50100   
 O2154    O    -1.00000   -0.05556   0.50100   
 O2155    O    -1.25000   -0.02778   1.49717   
 O2156    O    -1.25000   -0.08333   -0.49518  
 O2157    O    -1.50000   -0.03704   -0.32915  
 O2158    O    -1.50000   -0.12963   -0.66121  
 O2159    O    -1.25000   -0.00926   0.66703   
 O2160    O    -1.25000   -0.10185   0.33497   
 O2161    O    -1.46810   -0.05126   0.30840   
 C2162    C    -1.46710   -0.04729   0.13058   
 H2163    H    -1.44510   -0.04796   0.16030   
 O2164    O    -1.21810   -0.11607   0.97252   
 C2165    C    -1.21710   -0.11211   0.79470   
 H2166    H    -1.19510   -0.11277   0.82442   
 O2167    O    -1.03190   -0.05126   0.30840   
 C2168    C    -1.03290   -0.04729   0.13058   
 H2169    H    -1.05490   -0.04796   0.16030   
 O2170    O    -1.28190   -0.02348   1.30458   
 C2171    C    -1.28290   -0.01951   1.12676   
 H2172    H    -1.30490   -0.02018   1.15648   
 O2173    O    -1.53190   -0.05126   0.30840   
 C2174    C    -1.53290   -0.04729   0.13058   
 H2175    H    -1.55490   -0.04796   0.16030   
 O2176    O    -1.25000   -0.00094   0.00829   
 C2177    C    -1.25000   -0.00510   0.18544   
 H2178    H    -1.25000   -0.00851   0.14111   
 O2179    O    -1.00000   -0.06576   0.67240   
 C2180    C    -1.00000   -0.06991   0.84956   
 H2181    H    -1.00000   -0.07332   0.80523   
 O2182    O    -1.50000   -0.06576   0.67240   
 C2183    C    -1.50000   -0.06991   0.84956   
 H2184    H    -1.50000   -0.07332   0.80523   
 O2185    O    -1.25000   -0.08172   -0.28140  
 C2186    C    -1.25000   -0.08550   -0.10292  
 H2187    H    -1.25000   -0.08077   -0.11803  
 O2188    O    -1.50000   -0.05394   0.71478   
 C2189    C    -1.50000   -0.05773   0.89326   
 H2190    H    -1.50000   -0.05299   0.87815   
 O2191    O    -1.57395   -0.06216   0.42011   
 C2192    C    -1.62800   -0.07195   0.38322   
 H2193    H    -1.63005   -0.06744   0.35994   
 O2194    O    -1.32395   0.00265    -0.24401  
 C2195    C    -1.37800   -0.00713   -0.28090  
 H2196    H    -1.38005   -0.00262   -0.30418  
 O2197    O    -1.29205   -0.09821   -0.49133  
 C2198    C    -1.34510   -0.10826   -0.52556  
 H2199    H    -1.32515   -0.10945   -0.49040  
 O2200    O    -1.54205   -0.07043   0.50485   
 C2201    C    -1.59510   -0.08048   0.47061   
 H2202    H    -1.57515   -0.08167   0.50578   
 O2203    O    -1.04205   -0.07043   0.50485   
 C2204    C    -1.09510   -0.08048   0.47061   
 H2205    H    -1.07515   -0.08167   0.50578   
 O2206    O    -1.42605   -0.13918   0.14390   
 C2207    C    -1.37200   -0.12932   0.17747   
 H2208    H    -1.36995   -0.13220   0.12770   
 O2209    O    -1.17605   -0.11140   1.14008   
 C2210    C    -1.12200   -0.06450   -0.48665  
 H2211    H    -1.11995   -0.06738   -0.53642  
 O2212    O    -1.42605   -0.04659   0.47596   
 C2213    C    -1.37200   -0.03673   0.50953   
 H2214    H    -1.36995   -0.03961   0.45975   
 O2215    O    -1.70795   -0.07082   -0.39310  
 C2216    C    -1.65490   -0.06085   -0.35555  
 H2217    H    -1.67485   -0.06128   -0.31766  
 O2218    O    -1.45795   -0.04304   0.60307   
 C2219    C    -1.40490   -0.03307   0.64063   
 H2220    H    -1.42485   -0.03351   0.67851   
 O2221    O    -1.45795   -0.07043   0.50485   
 C2222    C    -1.40490   -0.08048   0.47061   
 H2223    H    -1.42485   -0.08167   0.50578   
 O2224    O    -1.70795   -0.00562   -0.15927  
 C2225    C    -1.65490   -0.01566   -0.19350  
 H2226    H    -1.67485   -0.01686   -0.15834  
 O2227    O    -1.17605   -0.03438   1.41628   
 C2228    C    -1.12200   -0.04417   1.37939   
 H2229    H    -1.11995   -0.03966   1.35611   
 O2230    O    -1.42605   0.03043    0.75217   
 C2231    C    -1.37200   0.02064    0.71527   
 H2232    H    -1.36995   0.02515    0.69200   
 O2233    O    -1.42605   -0.06216   0.42011   
 C2234    C    -1.37200   -0.07195   0.38322   
 H2235    H    -1.36995   -0.06744   0.35994   
 O2236    O    -1.32395   -0.07436   -0.52022  
 C2237    C    -1.37800   -0.06450   -0.48665  
 H2238    H    -1.38005   -0.06738   -0.53642  
 O2239    O    -1.57395   -0.04659   0.47596   
 C2240    C    -1.62800   -0.03673   0.50953   
 H2241    H    -1.63005   -0.03961   0.45975   
 O2242    O    -1.04205   -0.04304   0.60307   
 C2243    C    -1.09510   -0.03307   0.64063   
 H2244    H    -1.07515   -0.03351   0.67851   
 O2245    O    -1.29205   0.02177    -0.06105  
 C2246    C    -1.34510   -0.00529   1.63680   
 H2247    H    -1.32515   -0.00573   1.67469   
 O2248    O    -1.54205   -0.04304   0.60307   
 C2249    C    -1.59510   -0.03307   0.64063   
 H2250    H    -1.57515   -0.03351   0.67851   
 O2251    O    -1.53190   -0.04133   -0.13656  
 C2252    C    -1.53290   -0.04530   0.04126   
 H2253    H    -1.55490   -0.04464   0.01154   
 O2254    O    -1.28190   -0.10615   0.52756   
 C2255    C    -1.28290   -0.11011   0.70538   
 H2256    H    -1.30490   -0.10945   0.67566   
 O2257    O    -0.96810   -0.04133   -0.13656  
 C2258    C    -0.96710   -0.04530   0.04126   
 H2259    H    -0.94510   -0.04464   0.01154   
 O2260    O    -1.21810   -0.01356   0.85962   
 C2261    C    -1.21710   -0.01752   1.03744   
 H2262    H    -1.19510   -0.01686   1.00772   
 O2263    O    -1.46810   -0.04133   -0.13656  
 C2264    C    -1.46710   -0.04530   0.04126   
 H2265    H    -1.44510   -0.04464   0.01154   
 O2266    O    -1.25000   -0.10346   0.12119   
 C2267    C    -1.25000   -0.09968   -0.05729  
 H2268    H    -1.25000   -0.10442   -0.04219  
 O2269    O    -1.50000   -0.07569   1.11736   
 C2270    C    -1.50000   -0.07190   0.93888   
 H2271    H    -1.50000   -0.07664   0.95399   
 O2272    O    -1.25000   0.00094    0.49562   
 C2273    C    -1.25000   0.00510    0.31846   
 H2274    H    -1.25000   0.00851    0.36279   
 O2275    O    -1.00000   -0.06387   1.15973   
 C2276    C    -1.00000   -0.05972   0.98258   
 H2277    H    -1.00000   -0.05631   1.02691   
 O2278    O    -1.50000   -0.06387   1.15973   
 C2279    C    -1.50000   -0.05972   0.98258   
 H2280    H    -1.50000   -0.05631   1.02691   
 O2281    O    -1.42605   -0.04601   -0.30411  
 C2282    C    -1.37200   -0.05587   -0.33768  
 H2283    H    -1.36995   -0.05299   -0.28791  
 O2284    O    -1.67605   -0.01823   0.69206   
 C2285    C    -1.62200   -0.02809   0.65849   
 H2286    H    -1.61995   -0.02521   0.70827   
 O2287    O    -1.20795   -0.02177   0.56495   
 C2288    C    -1.15490   -0.03174   0.52739   
 H2289    H    -1.17485   -0.03131   0.48951   
 O2290    O    -1.45795   0.00601    1.56113   
 C2291    C    -1.40490   -0.00397   1.52357   
 H2292    H    -1.42485   -0.00353   1.48568   
 O2293    O    -1.70795   -0.02177   0.56495   
 C2294    C    -1.65490   -0.03174   0.52739   
 H2295    H    -1.67485   -0.03131   0.48951   
 O2296    O    -1.07395   -0.06747   1.41203   
 C2297    C    -1.12800   -0.05768   1.44892   
 H2298    H    -1.13005   -0.06219   1.47220   
 O2299    O    -1.32395   -0.00265   0.74791   
 C2300    C    -1.37800   0.00713    0.78481   
 H2301    H    -1.38005   0.00262    0.80808   
 O2302    O    -1.32395   -0.09525   0.41586   
 C2303    C    -1.37800   -0.08546   0.45275   
 H2304    H    -1.38005   -0.08997   0.47603   
 O2305    O    -1.29205   -0.08698   0.33112   
 C2306    C    -1.34510   -0.07693   0.36535   
 H2307    H    -1.32515   -0.07574   0.33019   
 O2308    O    -1.54205   -0.02216   -0.33300  
 C2309    C    -1.59510   -0.01211   -0.29877  
 H2310    H    -1.57515   -0.01092   -0.33393  
 O2311    O    -1.54205   -0.04955   -0.43122  
 C2312    C    -1.59510   -0.05952   -0.46878  
 H2313    H    -1.57515   -0.05909   -0.50667  
 O2314    O    -1.29205   -0.02177   0.56495   
 C2315    C    -1.34510   -0.03174   0.52739   
 H2316    H    -1.32515   -0.03131   0.48951   
 O2317    O    -1.32395   -0.11082   0.36000   
 C2318    C    -1.37800   -0.12068   0.32643   
 H2319    H    -1.38005   -0.11780   0.37621   
 O2320    O    -1.07395   -0.04601   -0.30411  
 C2321    C    -1.12800   -0.05587   -0.33768  
 H2322    H    -1.13005   -0.05299   -0.28791  
 O2323    O    -1.32395   -0.01823   0.69206   
 C2324    C    -1.37800   -0.02809   0.65849   
 H2325    H    -1.38005   -0.02521   0.70827   
 O2326    O    -1.67605   -0.09525   0.41586   
 C2327    C    -1.62200   -0.08546   0.45275   
 H2328    H    -1.61995   -0.08997   0.47603   
 O2329    O    -1.42605   -0.03043   -0.24826  
 C2330    C    -1.37200   -0.02064   -0.21137  
 H2331    H    -1.36995   -0.02515   -0.18809  
 O2332    O    -1.45795   -0.11475   -0.66506  
 C2333    C    -1.40490   -0.10471   -0.63083  
 H2334    H    -1.42485   -0.10351   -0.66599  
 O2335    O    -1.70795   -0.08698   0.33112   
 C2336    C    -1.65490   -0.07693   0.36535   
 H2337    H    -1.67485   -0.07574   0.33019   
 O2338    O    -1.20795   -0.08698   0.33112   
 C2339    C    -1.15490   -0.07693   0.36535   
 H2340    H    -1.17485   -0.07574   0.33019   
 O2341    O    -1.03190   -0.04133   -0.13656  
 C2342    C    -1.03290   -0.04530   0.04126   
 H2343    H    -1.05490   -0.04464   0.01154   
 O2344    O    -1.28190   -0.01356   0.85962   
 C2345    C    -1.28290   -0.01752   1.03744   
 H2346    H    -1.30490   -0.01686   1.00772   
 O2347    O    -1.21810   -0.10615   0.52756   
 C2348    C    -1.21710   -0.11011   0.70538   
 H2349    H    -1.19510   -0.10945   0.67566   
 O2350    O    -1.25000   -0.09165   0.16356   
 C2351    C    -1.25000   -0.08750   -0.01359  
 H2352    H    -1.25000   -0.08409   0.03073   
 O2353    O    -1.25000   -0.01087   0.45325   
 C2354    C    -1.25000   -0.00709   0.27476   
 H2355    H    -1.25000   -0.01183   0.28987   
 O2356    O    -1.00000   -0.07569   1.11736   
 C2357    C    -1.00000   -0.07190   0.93888   
 H2358    H    -1.00000   -0.07664   0.95399   
 O2359    O    -1.42605   -0.12302   -0.58032  
 C2360    C    -1.37200   -0.11324   -0.54343  
 H2361    H    -1.36995   -0.11775   -0.52015  
 O2362    O    -1.17605   -0.09525   0.41586   
 C2363    C    -1.12200   -0.08546   0.45275   
 H2364    H    -1.11995   -0.08997   0.47603   
 O2365    O    -1.45795   -0.02216   -0.33300  
 C2366    C    -1.40490   -0.01211   -0.29877  
 H2367    H    -1.42485   -0.01092   -0.33393  
 O2368    O    -1.57395   -0.04601   -0.30411  
 C2369    C    -1.62800   -0.05587   -0.33768  
 H2370    H    -1.63005   -0.05299   -0.28791  
 O2371    O    -1.29205   -0.11436   0.23289   
 C2372    C    -1.34510   -0.12434   0.19534   
 H2373    H    -1.32515   -0.12390   0.15745   
 O2374    O    -1.04205   -0.04955   -0.43122  
 C2375    C    -1.09510   -0.05952   -0.46878  
 H2376    H    -1.07515   -0.05909   -0.50667  
 O2377    O    -1.04205   -0.05920   1.32729   
 C2378    C    -1.09510   -0.04915   1.36153   
 H2379    H    -1.07515   -0.04796   1.32636   
 O2380    O    -1.29205   0.00562    0.66317   
 C2381    C    -1.34510   0.01566    0.69741   
 H2382    H    -1.32515   0.01686    0.66224   
 O2383    O    -1.57395   -0.03043   -0.24826  
 C2384    C    -1.62800   -0.02064   -0.21137  
 H2385    H    -1.63005   -0.02515   -0.18809  
 O2386    O    -1.17605   -0.01823   0.69206   
 C2387    C    -1.12200   -0.02809   0.65849   
 H2388    H    -1.11995   -0.02521   0.70827   
 O2389    O    -1.42605   0.00955    1.68824   
 C2390    C    -1.37200   -0.00031   1.65467   
 H2391    H    -1.36995   0.00257    1.70444   
 O2392    O    -1.45795   -0.04955   -0.43122  
 C2393    C    -1.40490   -0.05952   -0.46878  
 H2394    H    -1.42485   -0.05909   -0.50667  
 O2395    O    -1.46810   -0.14385   -0.02366  
 C2396    C    -0.96710   -0.04729   0.13058   
 H2397    H    -0.94510   -0.04796   0.16030   
 O2398    O    -1.21810   -0.02348   1.30458   
 C2399    C    -1.21710   -0.01951   1.12676   
 H2400    H    -1.19510   -0.02018   1.15648   
 O2401    O    -1.28190   -0.11607   0.97252   
 C2402    C    -1.28290   -0.11211   0.79470   
 H2403    H    -1.30490   -0.11277   0.82442   
 O2404    O    -1.25000   0.01087    0.05066   
 C2405    C    -1.25000   0.00709    0.22914   
 H2406    H    -1.25000   0.01183    0.21403   
 O2407    O    -1.50000   -0.14654   0.38272   
 C2408    C    -1.00000   -0.05773   0.89326   
 H2409    H    -1.00000   -0.05299   0.87815   
 O2410    O    -1.25000   -0.09354   -0.32377  
 C2411    C    -1.25000   -0.09769   -0.14662  
 H2412    H    -1.25000   -0.10110   -0.19095  
 O2413    O    -1.07395   -0.04659   0.47596   
 C2414    C    -1.12800   -0.03673   0.50953   
 H2415    H    -1.13005   -0.03961   0.45975   
 O2416    O    -1.32395   -0.01881   1.47213   
 C2417    C    -1.37800   -0.00895   1.50571   
 H2418    H    -1.38005   -0.01183   1.45593   
 O2419    O    -1.29205   -0.07082   -0.39310  
 C2420    C    -1.34510   -0.06085   -0.35555  
 H2421    H    -1.32515   -0.06128   -0.31766  
 O2422    O    -1.67605   0.00265    -0.24401  
 C2423    C    -1.62200   -0.00713   -0.28090  
 H2424    H    -1.61995   -0.00262   -0.30418  
 O2425    O    -1.20795   -0.00562   -0.15927  
 C2426    C    -1.15490   -0.05270   1.46679   
 H2427    H    -1.17485   -0.05389   1.50195   
 O2428    O    -1.45795   0.02216    0.83691   
 C2429    C    -1.40490   0.01211    0.80267   
 H2430    H    -1.42485   0.01092    0.83784   
 O2431    O    -1.45795   -0.13564   0.27101   
 C2432    C    -1.40490   -0.12566   0.30857   
 H2433    H    -1.42485   -0.12610   0.34646   
 O2434    O    -1.20795   -0.07082   -0.39310  
 C2435    C    -1.15490   -0.06085   -0.35555  
 H2436    H    -1.17485   -0.06128   -0.31766  
 O2437    O    -1.67605   -0.07436   -0.52022  
 C2438    C    -1.62200   -0.06450   -0.48665  
 H2439    H    -1.61995   -0.06738   -0.53642  
 O2440    O    -1.32395   -0.12698   1.08422   
 C2441    C    -1.37800   -0.09973   -0.61296  
 H2442    H    -1.38005   -0.09522   -0.63624  
 O2443    O    -1.07395   -0.06216   0.42011   
 C2444    C    -1.12800   -0.07195   0.38322   
 H2445    H    -1.13005   -0.06744   0.35994   
 O2446    O    -1.29205   -0.00562   -0.15927  
 C2447    C    -1.34510   -0.01566   -0.19350  
 H2448    H    -1.32515   -0.01686   -0.15834  
 C2449    C    -1.50000   -0.05042   0.27071   
 C2450    C    -1.50000   -0.04829   0.17525   
 C2451    C    -1.25000   -0.11523   0.93483   
 C2452    C    -1.25000   -0.11310   0.83936   
 C2453    C    -1.00000   -0.05042   0.27071   
 C2454    C    -1.00000   -0.04829   0.17525   
 C2455    C    -1.25000   -0.02264   1.26689   
 C2456    C    -1.25000   -0.02051   1.17142   
 C2457    C    -1.25000   0.00412    0.06716   
 C2458    C    -1.25000   0.00199    0.16263   
 C2459    C    -1.00000   -0.06069   0.73128   
 C2460    C    -1.00000   -0.06282   0.82675   
 C2461    C    -1.50000   -0.06069   0.73128   
 C2462    C    -1.50000   -0.06282   0.82675   
 C2463    C    -1.25000   -0.08847   -0.26490  
 C2464    C    -1.25000   -0.09060   -0.16943  
 C2465    C    -1.56935   -0.06840   0.45494   
 C2466    C    -1.59810   -0.07372   0.43585   
 C2467    C    -1.31935   -0.00358   -0.20918  
 C2468    C    -1.34810   -0.00891   -0.22827  
 C2469    C    -1.31935   -0.09618   -0.54124  
 C2470    C    -1.34810   -0.10150   -0.56033  
 C2471    C    -1.06935   -0.06840   0.45494   
 C2472    C    -1.09810   -0.07372   0.43585   
 C2473    C    -1.43065   -0.13531   0.21499   
 C2474    C    -1.40190   -0.12998   0.23409   
 C2475    C    -1.18065   -0.07049   -0.44912  
 C2476    C    -1.15190   -0.06517   -0.43003  
 C2477    C    -1.43065   -0.04271   0.54705   
 C2478    C    -1.40190   -0.03739   0.56615   
 C2479    C    -1.68065   -0.07049   -0.44912  
 C2480    C    -1.65190   -0.06517   -0.43003  
 C2481    C    -1.43065   -0.06840   0.45494   
 C2482    C    -1.40190   -0.07372   0.43585   
 C2483    C    -1.68065   -0.00358   -0.20918  
 C2484    C    -1.65190   -0.00891   -0.22827  
 C2485    C    -1.18065   -0.04062   1.45112   
 C2486    C    -1.15190   -0.04594   1.43202   
 C2487    C    -1.43065   0.02419    0.78700   
 C2488    C    -1.40190   0.01887    0.76790   
 C2489    C    -1.31935   -0.07049   -0.44912  
 C2490    C    -1.34810   -0.06517   -0.43003  
 C2491    C    -1.56935   -0.04271   0.54705   
 C2492    C    -1.59810   -0.03739   0.56615   
 C2493    C    -1.06935   -0.04271   0.54705   
 C2494    C    -1.09810   -0.03739   0.56615   
 C2495    C    -1.31935   -0.01494   1.54323   
 C2496    C    -1.34810   -0.00961   1.56232   
 C2497    C    -1.50000   -0.04217   -0.09887  
 C2498    C    -1.50000   -0.04430   -0.00340  
 C2499    C    -1.25000   -0.10699   0.56525   
 C2500    C    -1.25000   -0.10912   0.66072   
 C2501    C    -1.00000   -0.04217   -0.09887  
 C2502    C    -1.00000   -0.04430   -0.00340  
 C2503    C    -1.25000   -0.01440   0.89731   
 C2504    C    -1.25000   -0.01653   0.99277   
 C2505    C    -1.25000   -0.09671   0.10468   
 C2506    C    -1.25000   -0.09459   0.00922   
 C2507    C    -1.50000   -0.06894   1.10086   
 C2508    C    -1.50000   -0.06681   1.00539   
 C2509    C    -1.25000   -0.00412   0.43674   
 C2510    C    -1.25000   -0.00199   0.34128   
 C2511    C    -1.00000   -0.06894   1.10086   
 C2512    C    -1.00000   -0.06681   1.00539   
 C2513    C    -1.43065   -0.04988   -0.37521  
 C2514    C    -1.40190   -0.05520   -0.39430  
 C2515    C    -1.68065   -0.02210   0.62097   
 C2516    C    -1.65190   -0.02743   0.60188   
 C2517    C    -1.18065   -0.02210   0.62097   
 C2518    C    -1.15190   -0.02743   0.60188   
 C2519    C    -1.43065   0.00568    1.61714   
 C2520    C    -1.40190   0.00035    1.59805   
 C2521    C    -1.06935   -0.06123   1.37720   
 C2522    C    -1.09810   -0.05591   1.39629   
 C2523    C    -1.31935   0.00358    0.71308   
 C2524    C    -1.34810   0.00891    0.73218   
 C2525    C    -1.31935   -0.08901   0.38102   
 C2526    C    -1.34810   -0.08369   0.40012   
 C2527    C    -1.56935   -0.02419   -0.28309  
 C2528    C    -1.59810   -0.01887   -0.26400  
 C2529    C    -1.56935   -0.04988   -0.37521  
 C2530    C    -1.59810   -0.05520   -0.39430  
 C2531    C    -1.31935   -0.02210   0.62097   
 C2532    C    -1.34810   -0.02743   0.60188   
 C2533    C    -1.31935   -0.11469   0.28891   
 C2534    C    -1.34810   -0.12002   0.26982   
 C2535    C    -1.06935   -0.04988   -0.37521  
 C2536    C    -1.09810   -0.05520   -0.39430  
 C2537    C    -1.68065   -0.08901   0.38102   
 C2538    C    -1.65190   -0.08369   0.40012   
 C2539    C    -1.43065   -0.02419   -0.28309  
 C2540    C    -1.40190   -0.01887   -0.26400  
 C2541    C    -1.43065   -0.11679   -0.61515  
 C2542    C    -1.40190   -0.11146   -0.59606  
 C2543    C    -1.18065   -0.08901   0.38102   
 C2544    C    -1.15190   -0.08369   0.40012   
 Zn2545   Zn   -0.45660   -0.05395   0.42894   
 Zn2546   Zn   -0.20660   -0.11876   1.09306   
 Zn2547   Zn   -0.04340   -0.05395   0.42894   
 Zn2548   Zn   -0.29340   -0.02617   1.42511   
 Zn2549   Zn   -0.54340   -0.05395   0.42894   
 Zn2550   Zn   -0.25000   -0.00039   -0.11989  
 Zn2551   Zn   0.00000    -0.06520   0.54423   
 Zn2552   Zn   -0.50000   -0.06520   0.54423   
 Zn2553   Zn   -0.25000   -0.07690   -0.39430  
 Zn2554   Zn   -0.50000   -0.04913   0.60188   
 Zn2555   Zn   -0.25000   -0.09298   -0.45195  
 Zn2556   Zn   -0.45660   -0.14654   0.09688   
 Zn2557   Zn   -0.25000   0.01569    -0.06224  
 Zn2558   Zn   -0.20660   -0.02617   1.42511   
 Zn2559   Zn   -0.29340   -0.11876   1.09306   
 Zn2560   Zn   -0.50000   -0.14172   0.26982   
 Zn2561   Zn   -0.54340   -0.03864   -0.25709  
 Zn2562   Zn   -0.45660   -0.13124   -0.58915  
 Zn2563   Zn   -0.20660   -0.01087   0.73908   
 Zn2564   Zn   -0.45660   -0.03864   -0.25709  
 Zn2565   Zn   -0.25000   -0.10828   0.23409   
 Zn2566   Zn   -0.25000   0.00039    0.62379   
 Zn2567   Zn   -0.50000   -0.02739   -0.37238  
 Zn2568   Zn   -0.20660   -0.10346   0.40702   
 Zn2569   Zn   -0.25000   -0.01569   0.56615   
 Zn2570   Zn   0.00000    -0.04347   -0.43003  
 Zn2571   Zn   -0.04340   -0.03864   -0.25709  
 Zn2572   Zn   -0.29340   -0.01087   0.73908   
 Zn2573   Zn   -0.29340   -0.10346   0.40702   
 Zn2574   Zn   -0.25000   -0.09221   0.29173   
 Zn2575   Zn   -0.50000   -0.04347   -0.43003  
 Zn2576   Zn   -0.50000   -0.11999   -0.70444  
 O2577    O    -0.50000   -0.05556   0.50100   
 O2578    O    0.00000    -0.05556   0.50100   
 O2579    O    -0.25000   -0.02778   1.49717   
 O2580    O    -0.25000   -0.08333   -0.49518  
 O2581    O    -0.50000   -0.03704   -0.32915  
 O2582    O    -0.50000   -0.12963   -0.66121  
 O2583    O    -0.25000   -0.00926   0.66703   
 O2584    O    -0.25000   -0.10185   0.33497   
 O2585    O    -0.46810   -0.05126   0.30840   
 C2586    C    -0.46710   -0.04729   0.13058   
 H2587    H    -0.44510   -0.04796   0.16030   
 O2588    O    -0.21810   -0.11607   0.97252   
 C2589    C    -0.21710   -0.11211   0.79470   
 H2590    H    -0.19510   -0.11277   0.82442   
 O2591    O    -0.03190   -0.05126   0.30840   
 C2592    C    -0.03290   -0.04729   0.13058   
 H2593    H    -0.05490   -0.04796   0.16030   
 O2594    O    -0.28190   -0.02348   1.30458   
 C2595    C    -0.28290   -0.01951   1.12676   
 H2596    H    -0.30490   -0.02018   1.15648   
 O2597    O    -0.53190   -0.05126   0.30840   
 C2598    C    -0.53290   -0.04729   0.13058   
 H2599    H    -0.55490   -0.04796   0.16030   
 O2600    O    -0.25000   -0.00094   0.00829   
 C2601    C    -0.25000   -0.00510   0.18544   
 H2602    H    -0.25000   -0.00851   0.14111   
 O2603    O    0.00000    -0.06576   0.67240   
 C2604    C    0.00000    -0.06991   0.84956   
 H2605    H    0.00000    -0.07332   0.80523   
 O2606    O    -0.50000   -0.06576   0.67240   
 C2607    C    -0.50000   -0.06991   0.84956   
 H2608    H    -0.50000   -0.07332   0.80523   
 O2609    O    -0.25000   -0.08172   -0.28140  
 C2610    C    -0.25000   -0.08550   -0.10292  
 H2611    H    -0.25000   -0.08077   -0.11803  
 O2612    O    -0.50000   -0.05394   0.71478   
 C2613    C    -0.50000   -0.05773   0.89326   
 H2614    H    -0.50000   -0.05299   0.87815   
 O2615    O    -0.57395   -0.06216   0.42011   
 C2616    C    -0.62800   -0.07195   0.38322   
 H2617    H    -0.63005   -0.06744   0.35994   
 O2618    O    -0.32395   0.00265    -0.24401  
 C2619    C    -0.37800   -0.00713   -0.28090  
 H2620    H    -0.38005   -0.00262   -0.30418  
 O2621    O    -0.29205   -0.09821   -0.49133  
 C2622    C    -0.34510   -0.10826   -0.52556  
 H2623    H    -0.32515   -0.10945   -0.49040  
 O2624    O    -0.54205   -0.07043   0.50485   
 C2625    C    -0.59510   -0.08048   0.47061   
 H2626    H    -0.57515   -0.08167   0.50578   
 O2627    O    -0.04205   -0.07043   0.50485   
 C2628    C    -0.09510   -0.08048   0.47061   
 H2629    H    -0.07515   -0.08167   0.50578   
 O2630    O    -0.42605   -0.13918   0.14390   
 C2631    C    -0.37200   -0.12932   0.17747   
 H2632    H    -0.36995   -0.13220   0.12770   
 O2633    O    -0.17605   -0.11140   1.14008   
 C2634    C    -0.12200   -0.06450   -0.48665  
 H2635    H    -0.11995   -0.06738   -0.53642  
 O2636    O    -0.42605   -0.04659   0.47596   
 C2637    C    -0.37200   -0.03673   0.50953   
 H2638    H    -0.36995   -0.03961   0.45975   
 O2639    O    -0.70795   -0.07082   -0.39310  
 C2640    C    -0.65490   -0.06085   -0.35555  
 H2641    H    -0.67485   -0.06128   -0.31766  
 O2642    O    -0.45795   -0.04304   0.60307   
 C2643    C    -0.40490   -0.03307   0.64063   
 H2644    H    -0.42485   -0.03351   0.67851   
 O2645    O    -0.45795   -0.07043   0.50485   
 C2646    C    -0.40490   -0.08048   0.47061   
 H2647    H    -0.42485   -0.08167   0.50578   
 O2648    O    -0.70795   -0.00562   -0.15927  
 C2649    C    -0.65490   -0.01566   -0.19350  
 H2650    H    -0.67485   -0.01686   -0.15834  
 O2651    O    -0.17605   -0.03438   1.41628   
 C2652    C    -0.12200   -0.04417   1.37939   
 H2653    H    -0.11995   -0.03966   1.35611   
 O2654    O    -0.42605   0.03043    0.75217   
 C2655    C    -0.37200   0.02064    0.71527   
 H2656    H    -0.36995   0.02515    0.69200   
 O2657    O    -0.42605   -0.06216   0.42011   
 C2658    C    -0.37200   -0.07195   0.38322   
 H2659    H    -0.36995   -0.06744   0.35994   
 O2660    O    -0.32395   -0.07436   -0.52022  
 C2661    C    -0.37800   -0.06450   -0.48665  
 H2662    H    -0.38005   -0.06738   -0.53642  
 O2663    O    -0.57395   -0.04659   0.47596   
 C2664    C    -0.62800   -0.03673   0.50953   
 H2665    H    -0.63005   -0.03961   0.45975   
 O2666    O    -0.04205   -0.04304   0.60307   
 C2667    C    -0.09510   -0.03307   0.64063   
 H2668    H    -0.07515   -0.03351   0.67851   
 O2669    O    -0.29205   0.02177    -0.06105  
 C2670    C    -0.34510   -0.00529   1.63680   
 H2671    H    -0.32515   -0.00573   1.67469   
 O2672    O    -0.54205   -0.04304   0.60307   
 C2673    C    -0.59510   -0.03307   0.64063   
 H2674    H    -0.57515   -0.03351   0.67851   
 O2675    O    -0.53190   -0.04133   -0.13656  
 C2676    C    -0.53290   -0.04530   0.04126   
 H2677    H    -0.55490   -0.04464   0.01154   
 O2678    O    -0.28190   -0.10615   0.52756   
 C2679    C    -0.28290   -0.11011   0.70538   
 H2680    H    -0.30490   -0.10945   0.67566   
 O2681    O    0.03190    -0.04133   -0.13656  
 C2682    C    0.03290    -0.04530   0.04126   
 H2683    H    0.05490    -0.04464   0.01154   
 O2684    O    -0.21810   -0.01356   0.85962   
 C2685    C    -0.21710   -0.01752   1.03744   
 H2686    H    -0.19510   -0.01686   1.00772   
 O2687    O    -0.46810   -0.04133   -0.13656  
 C2688    C    -0.46710   -0.04530   0.04126   
 H2689    H    -0.44510   -0.04464   0.01154   
 O2690    O    -0.25000   -0.10346   0.12119   
 C2691    C    -0.25000   -0.09968   -0.05729  
 H2692    H    -0.25000   -0.10442   -0.04219  
 O2693    O    -0.50000   -0.07569   1.11736   
 C2694    C    -0.50000   -0.07190   0.93888   
 H2695    H    -0.50000   -0.07664   0.95399   
 O2696    O    -0.25000   0.00094    0.49562   
 C2697    C    -0.25000   0.00510    0.31846   
 H2698    H    -0.25000   0.00851    0.36279   
 O2699    O    0.00000    -0.06387   1.15973   
 C2700    C    0.00000    -0.05972   0.98258   
 H2701    H    0.00000    -0.05631   1.02691   
 O2702    O    -0.50000   -0.06387   1.15973   
 C2703    C    -0.50000   -0.05972   0.98258   
 H2704    H    -0.50000   -0.05631   1.02691   
 O2705    O    -0.42605   -0.04601   -0.30411  
 C2706    C    -0.37200   -0.05587   -0.33768  
 H2707    H    -0.36995   -0.05299   -0.28791  
 O2708    O    -0.67605   -0.01823   0.69206   
 C2709    C    -0.62200   -0.02809   0.65849   
 H2710    H    -0.61995   -0.02521   0.70827   
 O2711    O    -0.20795   -0.02177   0.56495   
 C2712    C    -0.15490   -0.03174   0.52739   
 H2713    H    -0.17485   -0.03131   0.48951   
 O2714    O    -0.45795   0.00601    1.56113   
 C2715    C    -0.40490   -0.00397   1.52357   
 H2716    H    -0.42485   -0.00353   1.48568   
 O2717    O    -0.70795   -0.02177   0.56495   
 C2718    C    -0.65490   -0.03174   0.52739   
 H2719    H    -0.67485   -0.03131   0.48951   
 O2720    O    -0.07395   -0.06747   1.41203   
 C2721    C    -0.12800   -0.05768   1.44892   
 H2722    H    -0.13005   -0.06219   1.47220   
 O2723    O    -0.32395   -0.00265   0.74791   
 C2724    C    -0.37800   0.00713    0.78481   
 H2725    H    -0.38005   0.00262    0.80808   
 O2726    O    -0.32395   -0.09525   0.41586   
 C2727    C    -0.37800   -0.08546   0.45275   
 H2728    H    -0.38005   -0.08997   0.47603   
 O2729    O    -0.29205   -0.08698   0.33112   
 C2730    C    -0.34510   -0.07693   0.36535   
 H2731    H    -0.32515   -0.07574   0.33019   
 O2732    O    -0.54205   -0.02216   -0.33300  
 C2733    C    -0.59510   -0.01211   -0.29877  
 H2734    H    -0.57515   -0.01092   -0.33393  
 O2735    O    -0.54205   -0.04955   -0.43122  
 C2736    C    -0.59510   -0.05952   -0.46878  
 H2737    H    -0.57515   -0.05909   -0.50667  
 O2738    O    -0.29205   -0.02177   0.56495   
 C2739    C    -0.34510   -0.03174   0.52739   
 H2740    H    -0.32515   -0.03131   0.48951   
 O2741    O    -0.32395   -0.11082   0.36000   
 C2742    C    -0.37800   -0.12068   0.32643   
 H2743    H    -0.38005   -0.11780   0.37621   
 O2744    O    -0.07395   -0.04601   -0.30411  
 C2745    C    -0.12800   -0.05587   -0.33768  
 H2746    H    -0.13005   -0.05299   -0.28791  
 O2747    O    -0.32395   -0.01823   0.69206   
 C2748    C    -0.37800   -0.02809   0.65849   
 H2749    H    -0.38005   -0.02521   0.70827   
 O2750    O    -0.67605   -0.09525   0.41586   
 C2751    C    -0.62200   -0.08546   0.45275   
 H2752    H    -0.61995   -0.08997   0.47603   
 O2753    O    -0.42605   -0.03043   -0.24826  
 C2754    C    -0.37200   -0.02064   -0.21137  
 H2755    H    -0.36995   -0.02515   -0.18809  
 O2756    O    -0.45795   -0.11475   -0.66506  
 C2757    C    -0.40490   -0.10471   -0.63083  
 H2758    H    -0.42485   -0.10351   -0.66599  
 O2759    O    -0.70795   -0.08698   0.33112   
 C2760    C    -0.65490   -0.07693   0.36535   
 H2761    H    -0.67485   -0.07574   0.33019   
 O2762    O    -0.20795   -0.08698   0.33112   
 C2763    C    -0.15490   -0.07693   0.36535   
 H2764    H    -0.17485   -0.07574   0.33019   
 O2765    O    -0.03190   -0.04133   -0.13656  
 C2766    C    -0.03290   -0.04530   0.04126   
 H2767    H    -0.05490   -0.04464   0.01154   
 O2768    O    -0.28190   -0.01356   0.85962   
 C2769    C    -0.28290   -0.01752   1.03744   
 H2770    H    -0.30490   -0.01686   1.00772   
 O2771    O    -0.21810   -0.10615   0.52756   
 C2772    C    -0.21710   -0.11011   0.70538   
 H2773    H    -0.19510   -0.10945   0.67566   
 O2774    O    -0.25000   -0.09165   0.16356   
 C2775    C    -0.25000   -0.08750   -0.01359  
 H2776    H    -0.25000   -0.08409   0.03073   
 O2777    O    -0.25000   -0.01087   0.45325   
 C2778    C    -0.25000   -0.00709   0.27476   
 H2779    H    -0.25000   -0.01183   0.28987   
 O2780    O    0.00000    -0.07569   1.11736   
 C2781    C    0.00000    -0.07190   0.93888   
 H2782    H    0.00000    -0.07664   0.95399   
 O2783    O    -0.42605   -0.12302   -0.58032  
 C2784    C    -0.37200   -0.11324   -0.54343  
 H2785    H    -0.36995   -0.11775   -0.52015  
 O2786    O    -0.17605   -0.09525   0.41586   
 C2787    C    -0.12200   -0.08546   0.45275   
 H2788    H    -0.11995   -0.08997   0.47603   
 O2789    O    -0.45795   -0.02216   -0.33300  
 C2790    C    -0.40490   -0.01211   -0.29877  
 H2791    H    -0.42485   -0.01092   -0.33393  
 O2792    O    -0.57395   -0.04601   -0.30411  
 C2793    C    -0.62800   -0.05587   -0.33768  
 H2794    H    -0.63005   -0.05299   -0.28791  
 O2795    O    -0.29205   -0.11436   0.23289   
 C2796    C    -0.34510   -0.12434   0.19534   
 H2797    H    -0.32515   -0.12390   0.15745   
 O2798    O    -0.04205   -0.04955   -0.43122  
 C2799    C    -0.09510   -0.05952   -0.46878  
 H2800    H    -0.07515   -0.05909   -0.50667  
 O2801    O    -0.04205   -0.05920   1.32729   
 C2802    C    -0.09510   -0.04915   1.36153   
 H2803    H    -0.07515   -0.04796   1.32636   
 O2804    O    -0.29205   0.00562    0.66317   
 C2805    C    -0.34510   0.01566    0.69741   
 H2806    H    -0.32515   0.01686    0.66224   
 O2807    O    -0.57395   -0.03043   -0.24826  
 C2808    C    -0.62800   -0.02064   -0.21137  
 H2809    H    -0.63005   -0.02515   -0.18809  
 O2810    O    -0.17605   -0.01823   0.69206   
 C2811    C    -0.12200   -0.02809   0.65849   
 H2812    H    -0.11995   -0.02521   0.70827   
 O2813    O    -0.42605   0.00955    1.68824   
 C2814    C    -0.37200   -0.00031   1.65467   
 H2815    H    -0.36995   0.00257    1.70444   
 O2816    O    -0.45795   -0.04955   -0.43122  
 C2817    C    -0.40490   -0.05952   -0.46878  
 H2818    H    -0.42485   -0.05909   -0.50667  
 O2819    O    -0.46810   -0.14385   -0.02366  
 C2820    C    0.03290    -0.04729   0.13058   
 H2821    H    0.05490    -0.04796   0.16030   
 O2822    O    -0.21810   -0.02348   1.30458   
 C2823    C    -0.21710   -0.01951   1.12676   
 H2824    H    -0.19510   -0.02018   1.15648   
 O2825    O    -0.28190   -0.11607   0.97252   
 C2826    C    -0.28290   -0.11211   0.79470   
 H2827    H    -0.30490   -0.11277   0.82442   
 O2828    O    -0.25000   0.01087    0.05066   
 C2829    C    -0.25000   0.00709    0.22914   
 H2830    H    -0.25000   0.01183    0.21403   
 O2831    O    -0.50000   -0.14654   0.38272   
 C2832    C    0.00000    -0.05773   0.89326   
 H2833    H    0.00000    -0.05299   0.87815   
 O2834    O    -0.25000   -0.09354   -0.32377  
 C2835    C    -0.25000   -0.09769   -0.14662  
 H2836    H    -0.25000   -0.10110   -0.19095  
 O2837    O    -0.07395   -0.04659   0.47596   
 C2838    C    -0.12800   -0.03673   0.50953   
 H2839    H    -0.13005   -0.03961   0.45975   
 O2840    O    -0.32395   -0.01881   1.47213   
 C2841    C    -0.37800   -0.00895   1.50571   
 H2842    H    -0.38005   -0.01183   1.45593   
 O2843    O    -0.29205   -0.07082   -0.39310  
 C2844    C    -0.34510   -0.06085   -0.35555  
 H2845    H    -0.32515   -0.06128   -0.31766  
 O2846    O    -0.67605   0.00265    -0.24401  
 C2847    C    -0.62200   -0.00713   -0.28090  
 H2848    H    -0.61995   -0.00262   -0.30418  
 O2849    O    -0.20795   -0.00562   -0.15927  
 C2850    C    -0.15490   -0.05270   1.46679   
 H2851    H    -0.17485   -0.05389   1.50195   
 O2852    O    -0.45795   0.02216    0.83691   
 C2853    C    -0.40490   0.01211    0.80267   
 H2854    H    -0.42485   0.01092    0.83784   
 O2855    O    -0.45795   -0.13564   0.27101   
 C2856    C    -0.40490   -0.12566   0.30857   
 H2857    H    -0.42485   -0.12610   0.34646   
 O2858    O    -0.20795   -0.07082   -0.39310  
 C2859    C    -0.15490   -0.06085   -0.35555  
 H2860    H    -0.17485   -0.06128   -0.31766  
 O2861    O    -0.67605   -0.07436   -0.52022  
 C2862    C    -0.62200   -0.06450   -0.48665  
 H2863    H    -0.61995   -0.06738   -0.53642  
 O2864    O    -0.32395   -0.12698   1.08422   
 C2865    C    -0.37800   -0.09973   -0.61296  
 H2866    H    -0.38005   -0.09522   -0.63624  
 O2867    O    -0.07395   -0.06216   0.42011   
 C2868    C    -0.12800   -0.07195   0.38322   
 H2869    H    -0.13005   -0.06744   0.35994   
 O2870    O    -0.29205   -0.00562   -0.15927  
 C2871    C    -0.34510   -0.01566   -0.19350  
 H2872    H    -0.32515   -0.01686   -0.15834  
 C2873    C    -0.50000   -0.05042   0.27071   
 C2874    C    -0.50000   -0.04829   0.17525   
 C2875    C    -0.25000   -0.11523   0.93483   
 C2876    C    -0.25000   -0.11310   0.83936   
 C2877    C    0.00000    -0.05042   0.27071   
 C2878    C    0.00000    -0.04829   0.17525   
 C2879    C    -0.25000   -0.02264   1.26689   
 C2880    C    -0.25000   -0.02051   1.17142   
 C2881    C    -0.25000   0.00412    0.06716   
 C2882    C    -0.25000   0.00199    0.16263   
 C2883    C    0.00000    -0.06069   0.73128   
 C2884    C    0.00000    -0.06282   0.82675   
 C2885    C    -0.50000   -0.06069   0.73128   
 C2886    C    -0.50000   -0.06282   0.82675   
 C2887    C    -0.25000   -0.08847   -0.26490  
 C2888    C    -0.25000   -0.09060   -0.16943  
 C2889    C    -0.56935   -0.06840   0.45494   
 C2890    C    -0.59810   -0.07372   0.43585   
 C2891    C    -0.31935   -0.00358   -0.20918  
 C2892    C    -0.34810   -0.00891   -0.22827  
 C2893    C    -0.31935   -0.09618   -0.54124  
 C2894    C    -0.34810   -0.10150   -0.56033  
 C2895    C    -0.06935   -0.06840   0.45494   
 C2896    C    -0.09810   -0.07372   0.43585   
 C2897    C    -0.43065   -0.13531   0.21499   
 C2898    C    -0.40190   -0.12998   0.23409   
 C2899    C    -0.18065   -0.07049   -0.44912  
 C2900    C    -0.15190   -0.06517   -0.43003  
 C2901    C    -0.43065   -0.04271   0.54705   
 C2902    C    -0.40190   -0.03739   0.56615   
 C2903    C    -0.68065   -0.07049   -0.44912  
 C2904    C    -0.65190   -0.06517   -0.43003  
 C2905    C    -0.43065   -0.06840   0.45494   
 C2906    C    -0.40190   -0.07372   0.43585   
 C2907    C    -0.68065   -0.00358   -0.20918  
 C2908    C    -0.65190   -0.00891   -0.22827  
 C2909    C    -0.18065   -0.04062   1.45112   
 C2910    C    -0.15190   -0.04594   1.43202   
 C2911    C    -0.43065   0.02419    0.78700   
 C2912    C    -0.40190   0.01887    0.76790   
 C2913    C    -0.31935   -0.07049   -0.44912  
 C2914    C    -0.34810   -0.06517   -0.43003  
 C2915    C    -0.56935   -0.04271   0.54705   
 C2916    C    -0.59810   -0.03739   0.56615   
 C2917    C    -0.06935   -0.04271   0.54705   
 C2918    C    -0.09810   -0.03739   0.56615   
 C2919    C    -0.31935   -0.01494   1.54323   
 C2920    C    -0.34810   -0.00961   1.56232   
 C2921    C    -0.50000   -0.04217   -0.09887  
 C2922    C    -0.50000   -0.04430   -0.00340  
 C2923    C    -0.25000   -0.10699   0.56525   
 C2924    C    -0.25000   -0.10912   0.66072   
 C2925    C    0.00000    -0.04217   -0.09887  
 C2926    C    0.00000    -0.04430   -0.00340  
 C2927    C    -0.25000   -0.01440   0.89731   
 C2928    C    -0.25000   -0.01653   0.99277   
 C2929    C    -0.25000   -0.09671   0.10468   
 C2930    C    -0.25000   -0.09459   0.00922   
 C2931    C    -0.50000   -0.06894   1.10086   
 C2932    C    -0.50000   -0.06681   1.00539   
 C2933    C    -0.25000   -0.00412   0.43674   
 C2934    C    -0.25000   -0.00199   0.34128   
 C2935    C    0.00000    -0.06894   1.10086   
 C2936    C    0.00000    -0.06681   1.00539   
 C2937    C    -0.43065   -0.04988   -0.37521  
 C2938    C    -0.40190   -0.05520   -0.39430  
 C2939    C    -0.68065   -0.02210   0.62097   
 C2940    C    -0.65190   -0.02743   0.60188   
 C2941    C    -0.18065   -0.02210   0.62097   
 C2942    C    -0.15190   -0.02743   0.60188   
 C2943    C    -0.43065   0.00568    1.61714   
 C2944    C    -0.40190   0.00035    1.59805   
 C2945    C    -0.06935   -0.06123   1.37720   
 C2946    C    -0.09810   -0.05591   1.39629   
 C2947    C    -0.31935   0.00358    0.71308   
 C2948    C    -0.34810   0.00891    0.73218   
 C2949    C    -0.31935   -0.08901   0.38102   
 C2950    C    -0.34810   -0.08369   0.40012   
 C2951    C    -0.56935   -0.02419   -0.28309  
 C2952    C    -0.59810   -0.01887   -0.26400  
 C2953    C    -0.56935   -0.04988   -0.37521  
 C2954    C    -0.59810   -0.05520   -0.39430  
 C2955    C    -0.31935   -0.02210   0.62097   
 C2956    C    -0.34810   -0.02743   0.60188   
 C2957    C    -0.31935   -0.11469   0.28891   
 C2958    C    -0.34810   -0.12002   0.26982   
 C2959    C    -0.06935   -0.04988   -0.37521  
 C2960    C    -0.09810   -0.05520   -0.39430  
 C2961    C    -0.68065   -0.08901   0.38102   
 C2962    C    -0.65190   -0.08369   0.40012   
 C2963    C    -0.43065   -0.02419   -0.28309  
 C2964    C    -0.40190   -0.01887   -0.26400  
 C2965    C    -0.43065   -0.11679   -0.61515  
 C2966    C    -0.40190   -0.11146   -0.59606  
 C2967    C    -0.18065   -0.08901   0.38102   
 C2968    C    -0.15190   -0.08369   0.40012   
 Zn2969   Zn   0.54340    -0.05395   0.42894   
 Zn2970   Zn   0.79340    -0.11876   1.09306   
 Zn2971   Zn   0.95660    -0.05395   0.42894   
 Zn2972   Zn   0.70660    -0.02617   1.42511   
 Zn2973   Zn   0.45660    -0.05395   0.42894   
 Zn2974   Zn   0.75000    -0.00039   -0.11989  
 Zn2975   Zn   1.00000    -0.06520   0.54423   
 Zn2976   Zn   0.50000    -0.06520   0.54423   
 Zn2977   Zn   0.75000    -0.07690   -0.39430  
 Zn2978   Zn   0.50000    -0.04913   0.60188   
 Zn2979   Zn   0.75000    -0.09298   -0.45195  
 Zn2980   Zn   0.54340    -0.14654   0.09688   
 Zn2981   Zn   0.75000    0.01569    -0.06224  
 Zn2982   Zn   0.79340    -0.02617   1.42511   
 Zn2983   Zn   0.70660    -0.11876   1.09306   
 Zn2984   Zn   0.50000    -0.14172   0.26982   
 Zn2985   Zn   0.45660    -0.03864   -0.25709  
 Zn2986   Zn   0.54340    -0.13124   -0.58915  
 Zn2987   Zn   0.79340    -0.01087   0.73908   
 Zn2988   Zn   0.54340    -0.03864   -0.25709  
 Zn2989   Zn   0.75000    -0.10828   0.23409   
 Zn2990   Zn   0.75000    0.00039    0.62379   
 Zn2991   Zn   0.50000    -0.02739   -0.37238  
 Zn2992   Zn   0.79340    -0.10346   0.40702   
 Zn2993   Zn   0.75000    -0.01569   0.56615   
 Zn2994   Zn   1.00000    -0.04347   -0.43003  
 Zn2995   Zn   0.95660    -0.03864   -0.25709  
 Zn2996   Zn   0.70660    -0.01087   0.73908   
 Zn2997   Zn   0.70660    -0.10346   0.40702   
 Zn2998   Zn   0.75000    -0.09221   0.29173   
 Zn2999   Zn   0.50000    -0.04347   -0.43003  
 Zn3000   Zn   0.50000    -0.11999   -0.70444  
 O3001    O    0.50000    -0.05556   0.50100   
 O3002    O    1.00000    -0.05556   0.50100   
 O3003    O    0.75000    -0.02778   1.49717   
 O3004    O    0.75000    -0.08333   -0.49518  
 O3005    O    0.50000    -0.03704   -0.32915  
 O3006    O    0.50000    -0.12963   -0.66121  
 O3007    O    0.75000    -0.00926   0.66703   
 O3008    O    0.75000    -0.10185   0.33497   
 O3009    O    0.53190    -0.05126   0.30840   
 C3010    C    0.53290    -0.04729   0.13058   
 H3011    H    0.55490    -0.04796   0.16030   
 O3012    O    0.78190    -0.11607   0.97252   
 C3013    C    0.78290    -0.11211   0.79470   
 H3014    H    0.80490    -0.11277   0.82442   
 O3015    O    0.96810    -0.05126   0.30840   
 C3016    C    0.96710    -0.04729   0.13058   
 H3017    H    0.94510    -0.04796   0.16030   
 O3018    O    0.71810    -0.02348   1.30458   
 C3019    C    0.71710    -0.01951   1.12676   
 H3020    H    0.69510    -0.02018   1.15648   
 O3021    O    0.46810    -0.05126   0.30840   
 C3022    C    0.46710    -0.04729   0.13058   
 H3023    H    0.44510    -0.04796   0.16030   
 O3024    O    0.75000    -0.00094   0.00829   
 C3025    C    0.75000    -0.00510   0.18544   
 H3026    H    0.75000    -0.00851   0.14111   
 O3027    O    1.00000    -0.06576   0.67240   
 C3028    C    1.00000    -0.06991   0.84956   
 H3029    H    1.00000    -0.07332   0.80523   
 O3030    O    0.50000    -0.06576   0.67240   
 C3031    C    0.50000    -0.06991   0.84956   
 H3032    H    0.50000    -0.07332   0.80523   
 O3033    O    0.75000    -0.08172   -0.28140  
 C3034    C    0.75000    -0.08550   -0.10292  
 H3035    H    0.75000    -0.08077   -0.11803  
 O3036    O    0.50000    -0.05394   0.71478   
 C3037    C    0.50000    -0.05773   0.89326   
 H3038    H    0.50000    -0.05299   0.87815   
 O3039    O    0.42605    -0.06216   0.42011   
 C3040    C    0.37200    -0.07195   0.38322   
 H3041    H    0.36995    -0.06744   0.35994   
 O3042    O    0.67605    0.00265    -0.24401  
 C3043    C    0.62200    -0.00713   -0.28090  
 H3044    H    0.61995    -0.00262   -0.30418  
 O3045    O    0.70795    -0.09821   -0.49133  
 C3046    C    0.65490    -0.10826   -0.52556  
 H3047    H    0.67485    -0.10945   -0.49040  
 O3048    O    0.45795    -0.07043   0.50485   
 C3049    C    0.40490    -0.08048   0.47061   
 H3050    H    0.42485    -0.08167   0.50578   
 O3051    O    0.95795    -0.07043   0.50485   
 C3052    C    0.90490    -0.08048   0.47061   
 H3053    H    0.92485    -0.08167   0.50578   
 O3054    O    0.57395    -0.13918   0.14390   
 C3055    C    0.62800    -0.12932   0.17747   
 H3056    H    0.63005    -0.13220   0.12770   
 O3057    O    0.82395    -0.11140   1.14008   
 C3058    C    0.87800    -0.06450   -0.48665  
 H3059    H    0.88005    -0.06738   -0.53642  
 O3060    O    0.57395    -0.04659   0.47596   
 C3061    C    0.62800    -0.03673   0.50953   
 H3062    H    0.63005    -0.03961   0.45975   
 O3063    O    0.29205    -0.07082   -0.39310  
 C3064    C    0.34510    -0.06085   -0.35555  
 H3065    H    0.32515    -0.06128   -0.31766  
 O3066    O    0.54205    -0.04304   0.60307   
 C3067    C    0.59510    -0.03307   0.64063   
 H3068    H    0.57515    -0.03351   0.67851   
 O3069    O    0.54205    -0.07043   0.50485   
 C3070    C    0.59510    -0.08048   0.47061   
 H3071    H    0.57515    -0.08167   0.50578   
 O3072    O    0.29205    -0.00562   -0.15927  
 C3073    C    0.34510    -0.01566   -0.19350  
 H3074    H    0.32515    -0.01686   -0.15834  
 O3075    O    0.82395    -0.03438   1.41628   
 C3076    C    0.87800    -0.04417   1.37939   
 H3077    H    0.88005    -0.03966   1.35611   
 O3078    O    0.57395    0.03043    0.75217   
 C3079    C    0.62800    0.02064    0.71527   
 H3080    H    0.63005    0.02515    0.69200   
 O3081    O    0.57395    -0.06216   0.42011   
 C3082    C    0.62800    -0.07195   0.38322   
 H3083    H    0.63005    -0.06744   0.35994   
 O3084    O    0.67605    -0.07436   -0.52022  
 C3085    C    0.62200    -0.06450   -0.48665  
 H3086    H    0.61995    -0.06738   -0.53642  
 O3087    O    0.42605    -0.04659   0.47596   
 C3088    C    0.37200    -0.03673   0.50953   
 H3089    H    0.36995    -0.03961   0.45975   
 O3090    O    0.95795    -0.04304   0.60307   
 C3091    C    0.90490    -0.03307   0.64063   
 H3092    H    0.92485    -0.03351   0.67851   
 O3093    O    0.70795    0.02177    -0.06105  
 C3094    C    0.65490    -0.00529   1.63680   
 H3095    H    0.67485    -0.00573   1.67469   
 O3096    O    0.45795    -0.04304   0.60307   
 C3097    C    0.40490    -0.03307   0.64063   
 H3098    H    0.42485    -0.03351   0.67851   
 O3099    O    0.46810    -0.04133   -0.13656  
 C3100    C    0.46710    -0.04530   0.04126   
 H3101    H    0.44510    -0.04464   0.01154   
 O3102    O    0.71810    -0.10615   0.52756   
 C3103    C    0.71710    -0.11011   0.70538   
 H3104    H    0.69510    -0.10945   0.67566   
 O3105    O    1.03190    -0.04133   -0.13656  
 C3106    C    1.03290    -0.04530   0.04126   
 H3107    H    1.05490    -0.04464   0.01154   
 O3108    O    0.78190    -0.01356   0.85962   
 C3109    C    0.78290    -0.01752   1.03744   
 H3110    H    0.80490    -0.01686   1.00772   
 O3111    O    0.53190    -0.04133   -0.13656  
 C3112    C    0.53290    -0.04530   0.04126   
 H3113    H    0.55490    -0.04464   0.01154   
 O3114    O    0.75000    -0.10346   0.12119   
 C3115    C    0.75000    -0.09968   -0.05729  
 H3116    H    0.75000    -0.10442   -0.04219  
 O3117    O    0.50000    -0.07569   1.11736   
 C3118    C    0.50000    -0.07190   0.93888   
 H3119    H    0.50000    -0.07664   0.95399   
 O3120    O    0.75000    0.00094    0.49562   
 C3121    C    0.75000    0.00510    0.31846   
 H3122    H    0.75000    0.00851    0.36279   
 O3123    O    1.00000    -0.06387   1.15973   
 C3124    C    1.00000    -0.05972   0.98258   
 H3125    H    1.00000    -0.05631   1.02691   
 O3126    O    0.50000    -0.06387   1.15973   
 C3127    C    0.50000    -0.05972   0.98258   
 H3128    H    0.50000    -0.05631   1.02691   
 O3129    O    0.57395    -0.04601   -0.30411  
 C3130    C    0.62800    -0.05587   -0.33768  
 H3131    H    0.63005    -0.05299   -0.28791  
 O3132    O    0.32395    -0.01823   0.69206   
 C3133    C    0.37800    -0.02809   0.65849   
 H3134    H    0.38005    -0.02521   0.70827   
 O3135    O    0.79205    -0.02177   0.56495   
 C3136    C    0.84510    -0.03174   0.52739   
 H3137    H    0.82515    -0.03131   0.48951   
 O3138    O    0.54205    0.00601    1.56113   
 C3139    C    0.59510    -0.00397   1.52357   
 H3140    H    0.57515    -0.00353   1.48568   
 O3141    O    0.29205    -0.02177   0.56495   
 C3142    C    0.34510    -0.03174   0.52739   
 H3143    H    0.32515    -0.03131   0.48951   
 O3144    O    0.92605    -0.06747   1.41203   
 C3145    C    0.87200    -0.05768   1.44892   
 H3146    H    0.86995    -0.06219   1.47220   
 O3147    O    0.67605    -0.00265   0.74791   
 C3148    C    0.62200    0.00713    0.78481   
 H3149    H    0.61995    0.00262    0.80808   
 O3150    O    0.67605    -0.09525   0.41586   
 C3151    C    0.62200    -0.08546   0.45275   
 H3152    H    0.61995    -0.08997   0.47603   
 O3153    O    0.70795    -0.08698   0.33112   
 C3154    C    0.65490    -0.07693   0.36535   
 H3155    H    0.67485    -0.07574   0.33019   
 O3156    O    0.45795    -0.02216   -0.33300  
 C3157    C    0.40490    -0.01211   -0.29877  
 H3158    H    0.42485    -0.01092   -0.33393  
 O3159    O    0.45795    -0.04955   -0.43122  
 C3160    C    0.40490    -0.05952   -0.46878  
 H3161    H    0.42485    -0.05909   -0.50667  
 O3162    O    0.70795    -0.02177   0.56495   
 C3163    C    0.65490    -0.03174   0.52739   
 H3164    H    0.67485    -0.03131   0.48951   
 O3165    O    0.67605    -0.11082   0.36000   
 C3166    C    0.62200    -0.12068   0.32643   
 H3167    H    0.61995    -0.11780   0.37621   
 O3168    O    0.92605    -0.04601   -0.30411  
 C3169    C    0.87200    -0.05587   -0.33768  
 H3170    H    0.86995    -0.05299   -0.28791  
 O3171    O    0.67605    -0.01823   0.69206   
 C3172    C    0.62200    -0.02809   0.65849   
 H3173    H    0.61995    -0.02521   0.70827   
 O3174    O    0.32395    -0.09525   0.41586   
 C3175    C    0.37800    -0.08546   0.45275   
 H3176    H    0.38005    -0.08997   0.47603   
 O3177    O    0.57395    -0.03043   -0.24826  
 C3178    C    0.62800    -0.02064   -0.21137  
 H3179    H    0.63005    -0.02515   -0.18809  
 O3180    O    0.54205    -0.11475   -0.66506  
 C3181    C    0.59510    -0.10471   -0.63083  
 H3182    H    0.57515    -0.10351   -0.66599  
 O3183    O    0.29205    -0.08698   0.33112   
 C3184    C    0.34510    -0.07693   0.36535   
 H3185    H    0.32515    -0.07574   0.33019   
 O3186    O    0.79205    -0.08698   0.33112   
 C3187    C    0.84510    -0.07693   0.36535   
 H3188    H    0.82515    -0.07574   0.33019   
 O3189    O    0.96810    -0.04133   -0.13656  
 C3190    C    0.96710    -0.04530   0.04126   
 H3191    H    0.94510    -0.04464   0.01154   
 O3192    O    0.71810    -0.01356   0.85962   
 C3193    C    0.71710    -0.01752   1.03744   
 H3194    H    0.69510    -0.01686   1.00772   
 O3195    O    0.78190    -0.10615   0.52756   
 C3196    C    0.78290    -0.11011   0.70538   
 H3197    H    0.80490    -0.10945   0.67566   
 O3198    O    0.75000    -0.09165   0.16356   
 C3199    C    0.75000    -0.08750   -0.01359  
 H3200    H    0.75000    -0.08409   0.03073   
 O3201    O    0.75000    -0.01087   0.45325   
 C3202    C    0.75000    -0.00709   0.27476   
 H3203    H    0.75000    -0.01183   0.28987   
 O3204    O    1.00000    -0.07569   1.11736   
 C3205    C    1.00000    -0.07190   0.93888   
 H3206    H    1.00000    -0.07664   0.95399   
 O3207    O    0.57395    -0.12302   -0.58032  
 C3208    C    0.62800    -0.11324   -0.54343  
 H3209    H    0.63005    -0.11775   -0.52015  
 O3210    O    0.82395    -0.09525   0.41586   
 C3211    C    0.87800    -0.08546   0.45275   
 H3212    H    0.88005    -0.08997   0.47603   
 O3213    O    0.54205    -0.02216   -0.33300  
 C3214    C    0.59510    -0.01211   -0.29877  
 H3215    H    0.57515    -0.01092   -0.33393  
 O3216    O    0.42605    -0.04601   -0.30411  
 C3217    C    0.37200    -0.05587   -0.33768  
 H3218    H    0.36995    -0.05299   -0.28791  
 O3219    O    0.70795    -0.11436   0.23289   
 C3220    C    0.65490    -0.12434   0.19534   
 H3221    H    0.67485    -0.12390   0.15745   
 O3222    O    0.95795    -0.04955   -0.43122  
 C3223    C    0.90490    -0.05952   -0.46878  
 H3224    H    0.92485    -0.05909   -0.50667  
 O3225    O    0.95795    -0.05920   1.32729   
 C3226    C    0.90490    -0.04915   1.36153   
 H3227    H    0.92485    -0.04796   1.32636   
 O3228    O    0.70795    0.00562    0.66317   
 C3229    C    0.65490    0.01566    0.69741   
 H3230    H    0.67485    0.01686    0.66224   
 O3231    O    0.42605    -0.03043   -0.24826  
 C3232    C    0.37200    -0.02064   -0.21137  
 H3233    H    0.36995    -0.02515   -0.18809  
 O3234    O    0.82395    -0.01823   0.69206   
 C3235    C    0.87800    -0.02809   0.65849   
 H3236    H    0.88005    -0.02521   0.70827   
 O3237    O    0.57395    0.00955    1.68824   
 C3238    C    0.62800    -0.00031   1.65467   
 H3239    H    0.63005    0.00257    1.70444   
 O3240    O    0.54205    -0.04955   -0.43122  
 C3241    C    0.59510    -0.05952   -0.46878  
 H3242    H    0.57515    -0.05909   -0.50667  
 O3243    O    0.53190    -0.14385   -0.02366  
 C3244    C    1.03290    -0.04729   0.13058   
 H3245    H    1.05490    -0.04796   0.16030   
 O3246    O    0.78190    -0.02348   1.30458   
 C3247    C    0.78290    -0.01951   1.12676   
 H3248    H    0.80490    -0.02018   1.15648   
 O3249    O    0.71810    -0.11607   0.97252   
 C3250    C    0.71710    -0.11211   0.79470   
 H3251    H    0.69510    -0.11277   0.82442   
 O3252    O    0.75000    0.01087    0.05066   
 C3253    C    0.75000    0.00709    0.22914   
 H3254    H    0.75000    0.01183    0.21403   
 O3255    O    0.50000    -0.14654   0.38272   
 C3256    C    1.00000    -0.05773   0.89326   
 H3257    H    1.00000    -0.05299   0.87815   
 O3258    O    0.75000    -0.09354   -0.32377  
 C3259    C    0.75000    -0.09769   -0.14662  
 H3260    H    0.75000    -0.10110   -0.19095  
 O3261    O    0.92605    -0.04659   0.47596   
 C3262    C    0.87200    -0.03673   0.50953   
 H3263    H    0.86995    -0.03961   0.45975   
 O3264    O    0.67605    -0.01881   1.47213   
 C3265    C    0.62200    -0.00895   1.50571   
 H3266    H    0.61995    -0.01183   1.45593   
 O3267    O    0.70795    -0.07082   -0.39310  
 C3268    C    0.65490    -0.06085   -0.35555  
 H3269    H    0.67485    -0.06128   -0.31766  
 O3270    O    0.32395    0.00265    -0.24401  
 C3271    C    0.37800    -0.00713   -0.28090  
 H3272    H    0.38005    -0.00262   -0.30418  
 O3273    O    0.79205    -0.00562   -0.15927  
 C3274    C    0.84510    -0.05270   1.46679   
 H3275    H    0.82515    -0.05389   1.50195   
 O3276    O    0.54205    0.02216    0.83691   
 C3277    C    0.59510    0.01211    0.80267   
 H3278    H    0.57515    0.01092    0.83784   
 O3279    O    0.54205    -0.13564   0.27101   
 C3280    C    0.59510    -0.12566   0.30857   
 H3281    H    0.57515    -0.12610   0.34646   
 O3282    O    0.79205    -0.07082   -0.39310  
 C3283    C    0.84510    -0.06085   -0.35555  
 H3284    H    0.82515    -0.06128   -0.31766  
 O3285    O    0.32395    -0.07436   -0.52022  
 C3286    C    0.37800    -0.06450   -0.48665  
 H3287    H    0.38005    -0.06738   -0.53642  
 O3288    O    0.67605    -0.12698   1.08422   
 C3289    C    0.62200    -0.09973   -0.61296  
 H3290    H    0.61995    -0.09522   -0.63624  
 O3291    O    0.92605    -0.06216   0.42011   
 C3292    C    0.87200    -0.07195   0.38322   
 H3293    H    0.86995    -0.06744   0.35994   
 O3294    O    0.70795    -0.00562   -0.15927  
 C3295    C    0.65490    -0.01566   -0.19350  
 H3296    H    0.67485    -0.01686   -0.15834  
 C3297    C    0.50000    -0.05042   0.27071   
 C3298    C    0.50000    -0.04829   0.17525   
 C3299    C    0.75000    -0.11523   0.93483   
 C3300    C    0.75000    -0.11310   0.83936   
 C3301    C    1.00000    -0.05042   0.27071   
 C3302    C    1.00000    -0.04829   0.17525   
 C3303    C    0.75000    -0.02264   1.26689   
 C3304    C    0.75000    -0.02051   1.17142   
 C3305    C    0.75000    0.00412    0.06716   
 C3306    C    0.75000    0.00199    0.16263   
 C3307    C    1.00000    -0.06069   0.73128   
 C3308    C    1.00000    -0.06282   0.82675   
 C3309    C    0.50000    -0.06069   0.73128   
 C3310    C    0.50000    -0.06282   0.82675   
 C3311    C    0.75000    -0.08847   -0.26490  
 C3312    C    0.75000    -0.09060   -0.16943  
 C3313    C    0.43065    -0.06840   0.45494   
 C3314    C    0.40190    -0.07372   0.43585   
 C3315    C    0.68065    -0.00358   -0.20918  
 C3316    C    0.65190    -0.00891   -0.22827  
 C3317    C    0.68065    -0.09618   -0.54124  
 C3318    C    0.65190    -0.10150   -0.56033  
 C3319    C    0.93065    -0.06840   0.45494   
 C3320    C    0.90190    -0.07372   0.43585   
 C3321    C    0.56935    -0.13531   0.21499   
 C3322    C    0.59810    -0.12998   0.23409   
 C3323    C    0.81935    -0.07049   -0.44912  
 C3324    C    0.84810    -0.06517   -0.43003  
 C3325    C    0.56935    -0.04271   0.54705   
 C3326    C    0.59810    -0.03739   0.56615   
 C3327    C    0.31935    -0.07049   -0.44912  
 C3328    C    0.34810    -0.06517   -0.43003  
 C3329    C    0.56935    -0.06840   0.45494   
 C3330    C    0.59810    -0.07372   0.43585   
 C3331    C    0.31935    -0.00358   -0.20918  
 C3332    C    0.34810    -0.00891   -0.22827  
 C3333    C    0.81935    -0.04062   1.45112   
 C3334    C    0.84810    -0.04594   1.43202   
 C3335    C    0.56935    0.02419    0.78700   
 C3336    C    0.59810    0.01887    0.76790   
 C3337    C    0.68065    -0.07049   -0.44912  
 C3338    C    0.65190    -0.06517   -0.43003  
 C3339    C    0.43065    -0.04271   0.54705   
 C3340    C    0.40190    -0.03739   0.56615   
 C3341    C    0.93065    -0.04271   0.54705   
 C3342    C    0.90190    -0.03739   0.56615   
 C3343    C    0.68065    -0.01494   1.54323   
 C3344    C    0.65190    -0.00961   1.56232   
 C3345    C    0.50000    -0.04217   -0.09887  
 C3346    C    0.50000    -0.04430   -0.00340  
 C3347    C    0.75000    -0.10699   0.56525   
 C3348    C    0.75000    -0.10912   0.66072   
 C3349    C    1.00000    -0.04217   -0.09887  
 C3350    C    1.00000    -0.04430   -0.00340  
 C3351    C    0.75000    -0.01440   0.89731   
 C3352    C    0.75000    -0.01653   0.99277   
 C3353    C    0.75000    -0.09671   0.10468   
 C3354    C    0.75000    -0.09459   0.00922   
 C3355    C    0.50000    -0.06894   1.10086   
 C3356    C    0.50000    -0.06681   1.00539   
 C3357    C    0.75000    -0.00412   0.43674   
 C3358    C    0.75000    -0.00199   0.34128   
 C3359    C    1.00000    -0.06894   1.10086   
 C3360    C    1.00000    -0.06681   1.00539   
 C3361    C    0.56935    -0.04988   -0.37521  
 C3362    C    0.59810    -0.05520   -0.39430  
 C3363    C    0.31935    -0.02210   0.62097   
 C3364    C    0.34810    -0.02743   0.60188   
 C3365    C    0.81935    -0.02210   0.62097   
 C3366    C    0.84810    -0.02743   0.60188   
 C3367    C    0.56935    0.00568    1.61714   
 C3368    C    0.59810    0.00035    1.59805   
 C3369    C    0.93065    -0.06123   1.37720   
 C3370    C    0.90190    -0.05591   1.39629   
 C3371    C    0.68065    0.00358    0.71308   
 C3372    C    0.65190    0.00891    0.73218   
 C3373    C    0.68065    -0.08901   0.38102   
 C3374    C    0.65190    -0.08369   0.40012   
 C3375    C    0.43065    -0.02419   -0.28309  
 C3376    C    0.40190    -0.01887   -0.26400  
 C3377    C    0.43065    -0.04988   -0.37521  
 C3378    C    0.40190    -0.05520   -0.39430  
 C3379    C    0.68065    -0.02210   0.62097   
 C3380    C    0.65190    -0.02743   0.60188   
 C3381    C    0.68065    -0.11469   0.28891   
 C3382    C    0.65190    -0.12002   0.26982   
 C3383    C    0.93065    -0.04988   -0.37521  
 C3384    C    0.90190    -0.05520   -0.39430  
 C3385    C    0.31935    -0.08901   0.38102   
 C3386    C    0.34810    -0.08369   0.40012   
 C3387    C    0.56935    -0.02419   -0.28309  
 C3388    C    0.59810    -0.01887   -0.26400  
 C3389    C    0.56935    -0.11679   -0.61515  
 C3390    C    0.59810    -0.11146   -0.59606  
 C3391    C    0.81935    -0.08901   0.38102   
 C3392    C    0.84810    -0.08369   0.40012   
 Zn3393   Zn   -1.95660   0.44605    0.42894   
 Zn3394   Zn   -1.70660   0.38124    1.09306   
 Zn3395   Zn   -1.54340   0.44605    0.42894   
 Zn3396   Zn   -1.79340   0.47383    1.42511   
 Zn3397   Zn   -2.04340   0.44605    0.42894   
 Zn3398   Zn   -1.75000   0.49961    -0.11989  
 Zn3399   Zn   -1.50000   0.43480    0.54423   
 Zn3400   Zn   -2.00000   0.43480    0.54423   
 Zn3401   Zn   -1.75000   0.42310    -0.39430  
 Zn3402   Zn   -2.00000   0.45087    0.60188   
 Zn3403   Zn   -1.75000   0.40702    -0.45195  
 Zn3404   Zn   -1.95660   0.35346    0.09688   
 Zn3405   Zn   -1.75000   0.51569    -0.06224  
 Zn3406   Zn   -1.70660   0.47383    1.42511   
 Zn3407   Zn   -1.79340   0.38124    1.09306   
 Zn3408   Zn   -2.00000   0.35828    0.26982   
 Zn3409   Zn   -2.04340   0.46136    -0.25709  
 Zn3410   Zn   -1.95660   0.36876    -0.58915  
 Zn3411   Zn   -1.70660   0.48913    0.73908   
 Zn3412   Zn   -1.95660   0.46136    -0.25709  
 Zn3413   Zn   -1.75000   0.39172    0.23409   
 Zn3414   Zn   -1.75000   0.50039    0.62379   
 Zn3415   Zn   -2.00000   0.47261    -0.37238  
 Zn3416   Zn   -1.70660   0.39654    0.40702   
 Zn3417   Zn   -1.75000   0.48431    0.56615   
 Zn3418   Zn   -1.50000   0.45653    -0.43003  
 Zn3419   Zn   -1.54340   0.46136    -0.25709  
 Zn3420   Zn   -1.79340   0.48913    0.73908   
 Zn3421   Zn   -1.79340   0.39654    0.40702   
 Zn3422   Zn   -1.75000   0.40779    0.29173   
 Zn3423   Zn   -2.00000   0.45653    -0.43003  
 Zn3424   Zn   -2.00000   0.38001    -0.70444  
 O3425    O    -2.00000   0.44444    0.50100   
 O3426    O    -1.50000   0.44444    0.50100   
 O3427    O    -1.75000   0.47222    1.49717   
 O3428    O    -1.75000   0.41667    -0.49518  
 O3429    O    -2.00000   0.46296    -0.32915  
 O3430    O    -2.00000   0.37037    -0.66121  
 O3431    O    -1.75000   0.49074    0.66703   
 O3432    O    -1.75000   0.39815    0.33497   
 O3433    O    -1.96810   0.44874    0.30840   
 C3434    C    -1.96710   0.45271    0.13058   
 H3435    H    -1.94510   0.45204    0.16030   
 O3436    O    -1.71810   0.38393    0.97252   
 C3437    C    -1.71710   0.38789    0.79470   
 H3438    H    -1.69510   0.38723    0.82442   
 O3439    O    -1.53190   0.44874    0.30840   
 C3440    C    -1.53290   0.45271    0.13058   
 H3441    H    -1.55490   0.45204    0.16030   
 O3442    O    -1.78190   0.47652    1.30458   
 C3443    C    -1.78290   0.48049    1.12676   
 H3444    H    -1.80490   0.47982    1.15648   
 O3445    O    -2.03190   0.44874    0.30840   
 C3446    C    -2.03290   0.45271    0.13058   
 H3447    H    -2.05490   0.45204    0.16030   
 O3448    O    -1.75000   0.49906    0.00829   
 C3449    C    -1.75000   0.49490    0.18544   
 H3450    H    -1.75000   0.49149    0.14111   
 O3451    O    -1.50000   0.43424    0.67240   
 C3452    C    -1.50000   0.43009    0.84956   
 H3453    H    -1.50000   0.42668    0.80523   
 O3454    O    -2.00000   0.43424    0.67240   
 C3455    C    -2.00000   0.43009    0.84956   
 H3456    H    -2.00000   0.42668    0.80523   
 O3457    O    -1.75000   0.41828    -0.28140  
 C3458    C    -1.75000   0.41450    -0.10292  
 H3459    H    -1.75000   0.41923    -0.11803  
 O3460    O    -2.00000   0.44606    0.71478   
 C3461    C    -2.00000   0.44227    0.89326   
 H3462    H    -2.00000   0.44701    0.87815   
 O3463    O    -2.07395   0.43784    0.42011   
 C3464    C    -2.12800   0.42805    0.38322   
 H3465    H    -2.13005   0.43256    0.35994   
 O3466    O    -1.82395   0.50265    -0.24401  
 C3467    C    -1.87800   0.49287    -0.28090  
 H3468    H    -1.88005   0.49738    -0.30418  
 O3469    O    -1.79205   0.40179    -0.49133  
 C3470    C    -1.84510   0.39174    -0.52556  
 H3471    H    -1.82515   0.39055    -0.49040  
 O3472    O    -2.04205   0.42957    0.50485   
 C3473    C    -2.09510   0.41952    0.47061   
 H3474    H    -2.07515   0.41833    0.50578   
 O3475    O    -1.54205   0.42957    0.50485   
 C3476    C    -1.59510   0.41952    0.47061   
 H3477    H    -1.57515   0.41833    0.50578   
 O3478    O    -1.92605   0.36082    0.14390   
 C3479    C    -1.87200   0.37068    0.17747   
 H3480    H    -1.86995   0.36780    0.12770   
 O3481    O    -1.67605   0.38860    1.14008   
 C3482    C    -1.62200   0.43550    -0.48665  
 H3483    H    -1.61995   0.43262    -0.53642  
 O3484    O    -1.92605   0.45341    0.47596   
 C3485    C    -1.87200   0.46327    0.50953   
 H3486    H    -1.86995   0.46039    0.45975   
 O3487    O    -2.20795   0.42918    -0.39310  
 C3488    C    -2.15490   0.43915    -0.35555  
 H3489    H    -2.17485   0.43872    -0.31766  
 O3490    O    -1.95795   0.45696    0.60307   
 C3491    C    -1.90490   0.46693    0.64063   
 H3492    H    -1.92485   0.46649    0.67851   
 O3493    O    -1.95795   0.42957    0.50485   
 C3494    C    -1.90490   0.41952    0.47061   
 H3495    H    -1.92485   0.41833    0.50578   
 O3496    O    -2.20795   0.49438    -0.15927  
 C3497    C    -2.15490   0.48434    -0.19350  
 H3498    H    -2.17485   0.48314    -0.15834  
 O3499    O    -1.67605   0.46562    1.41628   
 C3500    C    -1.62200   0.45583    1.37939   
 H3501    H    -1.61995   0.46034    1.35611   
 O3502    O    -1.92605   0.53043    0.75217   
 C3503    C    -1.87200   0.52064    0.71527   
 H3504    H    -1.86995   0.52515    0.69200   
 O3505    O    -1.92605   0.43784    0.42011   
 C3506    C    -1.87200   0.42805    0.38322   
 H3507    H    -1.86995   0.43256    0.35994   
 O3508    O    -1.82395   0.42564    -0.52022  
 C3509    C    -1.87800   0.43550    -0.48665  
 H3510    H    -1.88005   0.43262    -0.53642  
 O3511    O    -2.07395   0.45341    0.47596   
 C3512    C    -2.12800   0.46327    0.50953   
 H3513    H    -2.13005   0.46039    0.45975   
 O3514    O    -1.54205   0.45696    0.60307   
 C3515    C    -1.59510   0.46693    0.64063   
 H3516    H    -1.57515   0.46649    0.67851   
 O3517    O    -1.79205   0.52177    -0.06105  
 C3518    C    -1.84510   0.49471    1.63680   
 H3519    H    -1.82515   0.49427    1.67469   
 O3520    O    -2.04205   0.45696    0.60307   
 C3521    C    -2.09510   0.46693    0.64063   
 H3522    H    -2.07515   0.46649    0.67851   
 O3523    O    -2.03190   0.45867    -0.13656  
 C3524    C    -2.03290   0.45470    0.04126   
 H3525    H    -2.05490   0.45536    0.01154   
 O3526    O    -1.78190   0.39385    0.52756   
 C3527    C    -1.78290   0.38989    0.70538   
 H3528    H    -1.80490   0.39055    0.67566   
 O3529    O    -1.46810   0.45867    -0.13656  
 C3530    C    -1.46710   0.45470    0.04126   
 H3531    H    -1.44510   0.45536    0.01154   
 O3532    O    -1.71810   0.48644    0.85962   
 C3533    C    -1.71710   0.48248    1.03744   
 H3534    H    -1.69510   0.48314    1.00772   
 O3535    O    -1.96810   0.45867    -0.13656  
 C3536    C    -1.96710   0.45470    0.04126   
 H3537    H    -1.94510   0.45536    0.01154   
 O3538    O    -1.75000   0.39654    0.12119   
 C3539    C    -1.75000   0.40032    -0.05729  
 H3540    H    -1.75000   0.39558    -0.04219  
 O3541    O    -2.00000   0.42431    1.11736   
 C3542    C    -2.00000   0.42810    0.93888   
 H3543    H    -2.00000   0.42336    0.95399   
 O3544    O    -1.75000   0.50094    0.49562   
 C3545    C    -1.75000   0.50510    0.31846   
 H3546    H    -1.75000   0.50851    0.36279   
 O3547    O    -1.50000   0.43613    1.15973   
 C3548    C    -1.50000   0.44028    0.98258   
 H3549    H    -1.50000   0.44369    1.02691   
 O3550    O    -2.00000   0.43613    1.15973   
 C3551    C    -2.00000   0.44028    0.98258   
 H3552    H    -2.00000   0.44369    1.02691   
 O3553    O    -1.92605   0.45399    -0.30411  
 C3554    C    -1.87200   0.44413    -0.33768  
 H3555    H    -1.86995   0.44701    -0.28791  
 O3556    O    -2.17605   0.48177    0.69206   
 C3557    C    -2.12200   0.47191    0.65849   
 H3558    H    -2.11995   0.47479    0.70827   
 O3559    O    -1.70795   0.47823    0.56495   
 C3560    C    -1.65490   0.46826    0.52739   
 H3561    H    -1.67485   0.46869    0.48951   
 O3562    O    -1.95795   0.50601    1.56113   
 C3563    C    -1.90490   0.49603    1.52357   
 H3564    H    -1.92485   0.49647    1.48568   
 O3565    O    -2.20795   0.47823    0.56495   
 C3566    C    -2.15490   0.46826    0.52739   
 H3567    H    -2.17485   0.46869    0.48951   
 O3568    O    -1.57395   0.43253    1.41203   
 C3569    C    -1.62800   0.44232    1.44892   
 H3570    H    -1.63005   0.43781    1.47220   
 O3571    O    -1.82395   0.49735    0.74791   
 C3572    C    -1.87800   0.50713    0.78481   
 H3573    H    -1.88005   0.50262    0.80808   
 O3574    O    -1.82395   0.40475    0.41586   
 C3575    C    -1.87800   0.41454    0.45275   
 H3576    H    -1.88005   0.41003    0.47603   
 O3577    O    -1.79205   0.41302    0.33112   
 C3578    C    -1.84510   0.42307    0.36535   
 H3579    H    -1.82515   0.42426    0.33019   
 O3580    O    -2.04205   0.47784    -0.33300  
 C3581    C    -2.09510   0.48789    -0.29877  
 H3582    H    -2.07515   0.48908    -0.33393  
 O3583    O    -2.04205   0.45045    -0.43122  
 C3584    C    -2.09510   0.44048    -0.46878  
 H3585    H    -2.07515   0.44091    -0.50667  
 O3586    O    -1.79205   0.47823    0.56495   
 C3587    C    -1.84510   0.46826    0.52739   
 H3588    H    -1.82515   0.46869    0.48951   
 O3589    O    -1.82395   0.38918    0.36000   
 C3590    C    -1.87800   0.37932    0.32643   
 H3591    H    -1.88005   0.38220    0.37621   
 O3592    O    -1.57395   0.45399    -0.30411  
 C3593    C    -1.62800   0.44413    -0.33768  
 H3594    H    -1.63005   0.44701    -0.28791  
 O3595    O    -1.82395   0.48177    0.69206   
 C3596    C    -1.87800   0.47191    0.65849   
 H3597    H    -1.88005   0.47479    0.70827   
 O3598    O    -2.17605   0.40475    0.41586   
 C3599    C    -2.12200   0.41454    0.45275   
 H3600    H    -2.11995   0.41003    0.47603   
 O3601    O    -1.92605   0.46957    -0.24826  
 C3602    C    -1.87200   0.47936    -0.21137  
 H3603    H    -1.86995   0.47485    -0.18809  
 O3604    O    -1.95795   0.38525    -0.66506  
 C3605    C    -1.90490   0.39529    -0.63083  
 H3606    H    -1.92485   0.39649    -0.66599  
 O3607    O    -2.20795   0.41302    0.33112   
 C3608    C    -2.15490   0.42307    0.36535   
 H3609    H    -2.17485   0.42426    0.33019   
 O3610    O    -1.70795   0.41302    0.33112   
 C3611    C    -1.65490   0.42307    0.36535   
 H3612    H    -1.67485   0.42426    0.33019   
 O3613    O    -1.53190   0.45867    -0.13656  
 C3614    C    -1.53290   0.45470    0.04126   
 H3615    H    -1.55490   0.45536    0.01154   
 O3616    O    -1.78190   0.48644    0.85962   
 C3617    C    -1.78290   0.48248    1.03744   
 H3618    H    -1.80490   0.48314    1.00772   
 O3619    O    -1.71810   0.39385    0.52756   
 C3620    C    -1.71710   0.38989    0.70538   
 H3621    H    -1.69510   0.39055    0.67566   
 O3622    O    -1.75000   0.40835    0.16356   
 C3623    C    -1.75000   0.41250    -0.01359  
 H3624    H    -1.75000   0.41591    0.03073   
 O3625    O    -1.75000   0.48913    0.45325   
 C3626    C    -1.75000   0.49291    0.27476   
 H3627    H    -1.75000   0.48817    0.28987   
 O3628    O    -1.50000   0.42431    1.11736   
 C3629    C    -1.50000   0.42810    0.93888   
 H3630    H    -1.50000   0.42336    0.95399   
 O3631    O    -1.92605   0.37698    -0.58032  
 C3632    C    -1.87200   0.38676    -0.54343  
 H3633    H    -1.86995   0.38225    -0.52015  
 O3634    O    -1.67605   0.40475    0.41586   
 C3635    C    -1.62200   0.41454    0.45275   
 H3636    H    -1.61995   0.41003    0.47603   
 O3637    O    -1.95795   0.47784    -0.33300  
 C3638    C    -1.90490   0.48789    -0.29877  
 H3639    H    -1.92485   0.48908    -0.33393  
 O3640    O    -2.07395   0.45399    -0.30411  
 C3641    C    -2.12800   0.44413    -0.33768  
 H3642    H    -2.13005   0.44701    -0.28791  
 O3643    O    -1.79205   0.38564    0.23289   
 C3644    C    -1.84510   0.37566    0.19534   
 H3645    H    -1.82515   0.37610    0.15745   
 O3646    O    -1.54205   0.45045    -0.43122  
 C3647    C    -1.59510   0.44048    -0.46878  
 H3648    H    -1.57515   0.44091    -0.50667  
 O3649    O    -1.54205   0.44080    1.32729   
 C3650    C    -1.59510   0.45085    1.36153   
 H3651    H    -1.57515   0.45204    1.32636   
 O3652    O    -1.79205   0.50562    0.66317   
 C3653    C    -1.84510   0.51566    0.69741   
 H3654    H    -1.82515   0.51686    0.66224   
 O3655    O    -2.07395   0.46957    -0.24826  
 C3656    C    -2.12800   0.47936    -0.21137  
 H3657    H    -2.13005   0.47485    -0.18809  
 O3658    O    -1.67605   0.48177    0.69206   
 C3659    C    -1.62200   0.47191    0.65849   
 H3660    H    -1.61995   0.47479    0.70827   
 O3661    O    -1.92605   0.50955    1.68824   
 C3662    C    -1.87200   0.49969    1.65467   
 H3663    H    -1.86995   0.50257    1.70444   
 O3664    O    -1.95795   0.45045    -0.43122  
 C3665    C    -1.90490   0.44048    -0.46878  
 H3666    H    -1.92485   0.44091    -0.50667  
 O3667    O    -1.96810   0.35615    -0.02366  
 C3668    C    -1.46710   0.45271    0.13058   
 H3669    H    -1.44510   0.45204    0.16030   
 O3670    O    -1.71810   0.47652    1.30458   
 C3671    C    -1.71710   0.48049    1.12676   
 H3672    H    -1.69510   0.47982    1.15648   
 O3673    O    -1.78190   0.38393    0.97252   
 C3674    C    -1.78290   0.38789    0.79470   
 H3675    H    -1.80490   0.38723    0.82442   
 O3676    O    -1.75000   0.51087    0.05066   
 C3677    C    -1.75000   0.50709    0.22914   
 H3678    H    -1.75000   0.51183    0.21403   
 O3679    O    -2.00000   0.35346    0.38272   
 C3680    C    -1.50000   0.44227    0.89326   
 H3681    H    -1.50000   0.44701    0.87815   
 O3682    O    -1.75000   0.40646    -0.32377  
 C3683    C    -1.75000   0.40231    -0.14662  
 H3684    H    -1.75000   0.39890    -0.19095  
 O3685    O    -1.57395   0.45341    0.47596   
 C3686    C    -1.62800   0.46327    0.50953   
 H3687    H    -1.63005   0.46039    0.45975   
 O3688    O    -1.82395   0.48119    1.47213   
 C3689    C    -1.87800   0.49105    1.50571   
 H3690    H    -1.88005   0.48817    1.45593   
 O3691    O    -1.79205   0.42918    -0.39310  
 C3692    C    -1.84510   0.43915    -0.35555  
 H3693    H    -1.82515   0.43872    -0.31766  
 O3694    O    -2.17605   0.50265    -0.24401  
 C3695    C    -2.12200   0.49287    -0.28090  
 H3696    H    -2.11995   0.49738    -0.30418  
 O3697    O    -1.70795   0.49438    -0.15927  
 C3698    C    -1.65490   0.44730    1.46679   
 H3699    H    -1.67485   0.44611    1.50195   
 O3700    O    -1.95795   0.52216    0.83691   
 C3701    C    -1.90490   0.51211    0.80267   
 H3702    H    -1.92485   0.51092    0.83784   
 O3703    O    -1.95795   0.36436    0.27101   
 C3704    C    -1.90490   0.37434    0.30857   
 H3705    H    -1.92485   0.37390    0.34646   
 O3706    O    -1.70795   0.42918    -0.39310  
 C3707    C    -1.65490   0.43915    -0.35555  
 H3708    H    -1.67485   0.43872    -0.31766  
 O3709    O    -2.17605   0.42564    -0.52022  
 C3710    C    -2.12200   0.43550    -0.48665  
 H3711    H    -2.11995   0.43262    -0.53642  
 O3712    O    -1.82395   0.37302    1.08422   
 C3713    C    -1.87800   0.40027    -0.61296  
 H3714    H    -1.88005   0.40478    -0.63624  
 O3715    O    -1.57395   0.43784    0.42011   
 C3716    C    -1.62800   0.42805    0.38322   
 H3717    H    -1.63005   0.43256    0.35994   
 O3718    O    -1.79205   0.49438    -0.15927  
 C3719    C    -1.84510   0.48434    -0.19350  
 H3720    H    -1.82515   0.48314    -0.15834  
 C3721    C    -2.00000   0.44958    0.27071   
 C3722    C    -2.00000   0.45171    0.17525   
 C3723    C    -1.75000   0.38477    0.93483   
 C3724    C    -1.75000   0.38690    0.83936   
 C3725    C    -1.50000   0.44958    0.27071   
 C3726    C    -1.50000   0.45171    0.17525   
 C3727    C    -1.75000   0.47736    1.26689   
 C3728    C    -1.75000   0.47949    1.17142   
 C3729    C    -1.75000   0.50412    0.06716   
 C3730    C    -1.75000   0.50199    0.16263   
 C3731    C    -1.50000   0.43931    0.73128   
 C3732    C    -1.50000   0.43718    0.82675   
 C3733    C    -2.00000   0.43931    0.73128   
 C3734    C    -2.00000   0.43718    0.82675   
 C3735    C    -1.75000   0.41153    -0.26490  
 C3736    C    -1.75000   0.40940    -0.16943  
 C3737    C    -2.06935   0.43160    0.45494   
 C3738    C    -2.09810   0.42628    0.43585   
 C3739    C    -1.81935   0.49642    -0.20918  
 C3740    C    -1.84810   0.49109    -0.22827  
 C3741    C    -1.81935   0.40382    -0.54124  
 C3742    C    -1.84810   0.39850    -0.56033  
 C3743    C    -1.56935   0.43160    0.45494   
 C3744    C    -1.59810   0.42628    0.43585   
 C3745    C    -1.93065   0.36469    0.21499   
 C3746    C    -1.90190   0.37002    0.23409   
 C3747    C    -1.68065   0.42951    -0.44912  
 C3748    C    -1.65190   0.43483    -0.43003  
 C3749    C    -1.93065   0.45729    0.54705   
 C3750    C    -1.90190   0.46261    0.56615   
 C3751    C    -2.18065   0.42951    -0.44912  
 C3752    C    -2.15190   0.43483    -0.43003  
 C3753    C    -1.93065   0.43160    0.45494   
 C3754    C    -1.90190   0.42628    0.43585   
 C3755    C    -2.18065   0.49642    -0.20918  
 C3756    C    -2.15190   0.49109    -0.22827  
 C3757    C    -1.68065   0.45938    1.45112   
 C3758    C    -1.65190   0.45406    1.43202   
 C3759    C    -1.93065   0.52419    0.78700   
 C3760    C    -1.90190   0.51887    0.76790   
 C3761    C    -1.81935   0.42951    -0.44912  
 C3762    C    -1.84810   0.43483    -0.43003  
 C3763    C    -2.06935   0.45729    0.54705   
 C3764    C    -2.09810   0.46261    0.56615   
 C3765    C    -1.56935   0.45729    0.54705   
 C3766    C    -1.59810   0.46261    0.56615   
 C3767    C    -1.81935   0.48506    1.54323   
 C3768    C    -1.84810   0.49039    1.56232   
 C3769    C    -2.00000   0.45783    -0.09887  
 C3770    C    -2.00000   0.45570    -0.00340  
 C3771    C    -1.75000   0.39301    0.56525   
 C3772    C    -1.75000   0.39088    0.66072   
 C3773    C    -1.50000   0.45783    -0.09887  
 C3774    C    -1.50000   0.45570    -0.00340  
 C3775    C    -1.75000   0.48560    0.89731   
 C3776    C    -1.75000   0.48347    0.99277   
 C3777    C    -1.75000   0.40329    0.10468   
 C3778    C    -1.75000   0.40541    0.00922   
 C3779    C    -2.00000   0.43106    1.10086   
 C3780    C    -2.00000   0.43319    1.00539   
 C3781    C    -1.75000   0.49588    0.43674   
 C3782    C    -1.75000   0.49801    0.34128   
 C3783    C    -1.50000   0.43106    1.10086   
 C3784    C    -1.50000   0.43319    1.00539   
 C3785    C    -1.93065   0.45012    -0.37521  
 C3786    C    -1.90190   0.44480    -0.39430  
 C3787    C    -2.18065   0.47790    0.62097   
 C3788    C    -2.15190   0.47257    0.60188   
 C3789    C    -1.68065   0.47790    0.62097   
 C3790    C    -1.65190   0.47257    0.60188   
 C3791    C    -1.93065   0.50568    1.61714   
 C3792    C    -1.90190   0.50035    1.59805   
 C3793    C    -1.56935   0.43877    1.37720   
 C3794    C    -1.59810   0.44409    1.39629   
 C3795    C    -1.81935   0.50358    0.71308   
 C3796    C    -1.84810   0.50891    0.73218   
 C3797    C    -1.81935   0.41099    0.38102   
 C3798    C    -1.84810   0.41631    0.40012   
 C3799    C    -2.06935   0.47581    -0.28309  
 C3800    C    -2.09810   0.48113    -0.26400  
 C3801    C    -2.06935   0.45012    -0.37521  
 C3802    C    -2.09810   0.44480    -0.39430  
 C3803    C    -1.81935   0.47790    0.62097   
 C3804    C    -1.84810   0.47257    0.60188   
 C3805    C    -1.81935   0.38531    0.28891   
 C3806    C    -1.84810   0.37998    0.26982   
 C3807    C    -1.56935   0.45012    -0.37521  
 C3808    C    -1.59810   0.44480    -0.39430  
 C3809    C    -2.18065   0.41099    0.38102   
 C3810    C    -2.15190   0.41631    0.40012   
 C3811    C    -1.93065   0.47581    -0.28309  
 C3812    C    -1.90190   0.48113    -0.26400  
 C3813    C    -1.93065   0.38321    -0.61515  
 C3814    C    -1.90190   0.38854    -0.59606  
 C3815    C    -1.68065   0.41099    0.38102   
 C3816    C    -1.65190   0.41631    0.40012   
 Zn3817   Zn   1.54340    -0.05395   0.42894   
 Zn3818   Zn   1.79340    -0.11876   1.09306   
 Zn3819   Zn   1.95660    -0.05395   0.42894   
 Zn3820   Zn   1.70660    -0.02617   1.42511   
 Zn3821   Zn   1.45660    -0.05395   0.42894   
 Zn3822   Zn   1.75000    -0.00039   -0.11989  
 Zn3823   Zn   2.00000    -0.06520   0.54423   
 Zn3824   Zn   1.50000    -0.06520   0.54423   
 Zn3825   Zn   1.75000    -0.07690   -0.39430  
 Zn3826   Zn   1.50000    -0.04913   0.60188   
 Zn3827   Zn   1.75000    -0.09298   -0.45195  
 Zn3828   Zn   1.54340    -0.14654   0.09688   
 Zn3829   Zn   1.75000    0.01569    -0.06224  
 Zn3830   Zn   1.79340    -0.02617   1.42511   
 Zn3831   Zn   1.70660    -0.11876   1.09306   
 Zn3832   Zn   1.50000    -0.14172   0.26982   
 Zn3833   Zn   1.45660    -0.03864   -0.25709  
 Zn3834   Zn   1.54340    -0.13124   -0.58915  
 Zn3835   Zn   1.79340    -0.01087   0.73908   
 Zn3836   Zn   1.54340    -0.03864   -0.25709  
 Zn3837   Zn   1.75000    -0.10828   0.23409   
 Zn3838   Zn   1.75000    0.00039    0.62379   
 Zn3839   Zn   1.50000    -0.02739   -0.37238  
 Zn3840   Zn   1.79340    -0.10346   0.40702   
 Zn3841   Zn   1.75000    -0.01569   0.56615   
 Zn3842   Zn   2.00000    -0.04347   -0.43003  
 Zn3843   Zn   1.95660    -0.03864   -0.25709  
 Zn3844   Zn   1.70660    -0.01087   0.73908   
 Zn3845   Zn   1.70660    -0.10346   0.40702   
 Zn3846   Zn   1.75000    -0.09221   0.29173   
 Zn3847   Zn   1.50000    -0.04347   -0.43003  
 Zn3848   Zn   1.50000    -0.11999   -0.70444  
 O3849    O    1.50000    -0.05556   0.50100   
 O3850    O    2.00000    -0.05556   0.50100   
 O3851    O    1.75000    -0.02778   1.49717   
 O3852    O    1.75000    -0.08333   -0.49518  
 O3853    O    1.50000    -0.03704   -0.32915  
 O3854    O    1.50000    -0.12963   -0.66121  
 O3855    O    1.75000    -0.00926   0.66703   
 O3856    O    1.75000    -0.10185   0.33497   
 O3857    O    1.53190    -0.05126   0.30840   
 C3858    C    1.53290    -0.04729   0.13058   
 H3859    H    1.55490    -0.04796   0.16030   
 O3860    O    1.78190    -0.11607   0.97252   
 C3861    C    1.78290    -0.11211   0.79470   
 H3862    H    1.80490    -0.11277   0.82442   
 O3863    O    1.96810    -0.05126   0.30840   
 C3864    C    1.96710    -0.04729   0.13058   
 H3865    H    1.94510    -0.04796   0.16030   
 O3866    O    1.71810    -0.02348   1.30458   
 C3867    C    1.71710    -0.01951   1.12676   
 H3868    H    1.69510    -0.02018   1.15648   
 O3869    O    1.46810    -0.05126   0.30840   
 C3870    C    1.46710    -0.04729   0.13058   
 H3871    H    1.44510    -0.04796   0.16030   
 O3872    O    1.75000    -0.00094   0.00829   
 C3873    C    1.75000    -0.00510   0.18544   
 H3874    H    1.75000    -0.00851   0.14111   
 O3875    O    2.00000    -0.06576   0.67240   
 C3876    C    2.00000    -0.06991   0.84956   
 H3877    H    2.00000    -0.07332   0.80523   
 O3878    O    1.50000    -0.06576   0.67240   
 C3879    C    1.50000    -0.06991   0.84956   
 H3880    H    1.50000    -0.07332   0.80523   
 O3881    O    1.75000    -0.08172   -0.28140  
 C3882    C    1.75000    -0.08550   -0.10292  
 H3883    H    1.75000    -0.08077   -0.11803  
 O3884    O    1.50000    -0.05394   0.71478   
 C3885    C    1.50000    -0.05773   0.89326   
 H3886    H    1.50000    -0.05299   0.87815   
 O3887    O    1.42605    -0.06216   0.42011   
 C3888    C    1.37200    -0.07195   0.38322   
 H3889    H    1.36995    -0.06744   0.35994   
 O3890    O    1.67605    0.00265    -0.24401  
 C3891    C    1.62200    -0.00713   -0.28090  
 H3892    H    1.61995    -0.00262   -0.30418  
 O3893    O    1.70795    -0.09821   -0.49133  
 C3894    C    1.65490    -0.10826   -0.52556  
 H3895    H    1.67485    -0.10945   -0.49040  
 O3896    O    1.45795    -0.07043   0.50485   
 C3897    C    1.40490    -0.08048   0.47061   
 H3898    H    1.42485    -0.08167   0.50578   
 O3899    O    1.95795    -0.07043   0.50485   
 C3900    C    1.90490    -0.08048   0.47061   
 H3901    H    1.92485    -0.08167   0.50578   
 O3902    O    1.57395    -0.13918   0.14390   
 C3903    C    1.62800    -0.12932   0.17747   
 H3904    H    1.63005    -0.13220   0.12770   
 O3905    O    1.82395    -0.11140   1.14008   
 C3906    C    1.87800    -0.06450   -0.48665  
 H3907    H    1.88005    -0.06738   -0.53642  
 O3908    O    1.57395    -0.04659   0.47596   
 C3909    C    1.62800    -0.03673   0.50953   
 H3910    H    1.63005    -0.03961   0.45975   
 O3911    O    1.29205    -0.07082   -0.39310  
 C3912    C    1.34510    -0.06085   -0.35555  
 H3913    H    1.32515    -0.06128   -0.31766  
 O3914    O    1.54205    -0.04304   0.60307   
 C3915    C    1.59510    -0.03307   0.64063   
 H3916    H    1.57515    -0.03351   0.67851   
 O3917    O    1.54205    -0.07043   0.50485   
 C3918    C    1.59510    -0.08048   0.47061   
 H3919    H    1.57515    -0.08167   0.50578   
 O3920    O    1.29205    -0.00562   -0.15927  
 C3921    C    1.34510    -0.01566   -0.19350  
 H3922    H    1.32515    -0.01686   -0.15834  
 O3923    O    1.82395    -0.03438   1.41628   
 C3924    C    1.87800    -0.04417   1.37939   
 H3925    H    1.88005    -0.03966   1.35611   
 O3926    O    1.57395    0.03043    0.75217   
 C3927    C    1.62800    0.02064    0.71527   
 H3928    H    1.63005    0.02515    0.69200   
 O3929    O    1.57395    -0.06216   0.42011   
 C3930    C    1.62800    -0.07195   0.38322   
 H3931    H    1.63005    -0.06744   0.35994   
 O3932    O    1.67605    -0.07436   -0.52022  
 C3933    C    1.62200    -0.06450   -0.48665  
 H3934    H    1.61995    -0.06738   -0.53642  
 O3935    O    1.42605    -0.04659   0.47596   
 C3936    C    1.37200    -0.03673   0.50953   
 H3937    H    1.36995    -0.03961   0.45975   
 O3938    O    1.95795    -0.04304   0.60307   
 C3939    C    1.90490    -0.03307   0.64063   
 H3940    H    1.92485    -0.03351   0.67851   
 O3941    O    1.70795    0.02177    -0.06105  
 C3942    C    1.65490    -0.00529   1.63680   
 H3943    H    1.67485    -0.00573   1.67469   
 O3944    O    1.45795    -0.04304   0.60307   
 C3945    C    1.40490    -0.03307   0.64063   
 H3946    H    1.42485    -0.03351   0.67851   
 O3947    O    1.46810    -0.04133   -0.13656  
 C3948    C    1.46710    -0.04530   0.04126   
 H3949    H    1.44510    -0.04464   0.01154   
 O3950    O    1.71810    -0.10615   0.52756   
 C3951    C    1.71710    -0.11011   0.70538   
 H3952    H    1.69510    -0.10945   0.67566   
 O3953    O    2.03190    -0.04133   -0.13656  
 C3954    C    2.03290    -0.04530   0.04126   
 H3955    H    2.05490    -0.04464   0.01154   
 O3956    O    1.78190    -0.01356   0.85962   
 C3957    C    1.78290    -0.01752   1.03744   
 H3958    H    1.80490    -0.01686   1.00772   
 O3959    O    1.53190    -0.04133   -0.13656  
 C3960    C    1.53290    -0.04530   0.04126   
 H3961    H    1.55490    -0.04464   0.01154   
 O3962    O    1.75000    -0.10346   0.12119   
 C3963    C    1.75000    -0.09968   -0.05729  
 H3964    H    1.75000    -0.10442   -0.04219  
 O3965    O    1.50000    -0.07569   1.11736   
 C3966    C    1.50000    -0.07190   0.93888   
 H3967    H    1.50000    -0.07664   0.95399   
 O3968    O    1.75000    0.00094    0.49562   
 C3969    C    1.75000    0.00510    0.31846   
 H3970    H    1.75000    0.00851    0.36279   
 O3971    O    2.00000    -0.06387   1.15973   
 C3972    C    2.00000    -0.05972   0.98258   
 H3973    H    2.00000    -0.05631   1.02691   
 O3974    O    1.50000    -0.06387   1.15973   
 C3975    C    1.50000    -0.05972   0.98258   
 H3976    H    1.50000    -0.05631   1.02691   
 O3977    O    1.57395    -0.04601   -0.30411  
 C3978    C    1.62800    -0.05587   -0.33768  
 H3979    H    1.63005    -0.05299   -0.28791  
 O3980    O    1.32395    -0.01823   0.69206   
 C3981    C    1.37800    -0.02809   0.65849   
 H3982    H    1.38005    -0.02521   0.70827   
 O3983    O    1.79205    -0.02177   0.56495   
 C3984    C    1.84510    -0.03174   0.52739   
 H3985    H    1.82515    -0.03131   0.48951   
 O3986    O    1.54205    0.00601    1.56113   
 C3987    C    1.59510    -0.00397   1.52357   
 H3988    H    1.57515    -0.00353   1.48568   
 O3989    O    1.29205    -0.02177   0.56495   
 C3990    C    1.34510    -0.03174   0.52739   
 H3991    H    1.32515    -0.03131   0.48951   
 O3992    O    1.92605    -0.06747   1.41203   
 C3993    C    1.87200    -0.05768   1.44892   
 H3994    H    1.86995    -0.06219   1.47220   
 O3995    O    1.67605    -0.00265   0.74791   
 C3996    C    1.62200    0.00713    0.78481   
 H3997    H    1.61995    0.00262    0.80808   
 O3998    O    1.67605    -0.09525   0.41586   
 C3999    C    1.62200    -0.08546   0.45275   
 H4000    H    1.61995    -0.08997   0.47603   
 O4001    O    1.70795    -0.08698   0.33112   
 C4002    C    1.65490    -0.07693   0.36535   
 H4003    H    1.67485    -0.07574   0.33019   
 O4004    O    1.45795    -0.02216   -0.33300  
 C4005    C    1.40490    -0.01211   -0.29877  
 H4006    H    1.42485    -0.01092   -0.33393  
 O4007    O    1.45795    -0.04955   -0.43122  
 C4008    C    1.40490    -0.05952   -0.46878  
 H4009    H    1.42485    -0.05909   -0.50667  
 O4010    O    1.70795    -0.02177   0.56495   
 C4011    C    1.65490    -0.03174   0.52739   
 H4012    H    1.67485    -0.03131   0.48951   
 O4013    O    1.67605    -0.11082   0.36000   
 C4014    C    1.62200    -0.12068   0.32643   
 H4015    H    1.61995    -0.11780   0.37621   
 O4016    O    1.92605    -0.04601   -0.30411  
 C4017    C    1.87200    -0.05587   -0.33768  
 H4018    H    1.86995    -0.05299   -0.28791  
 O4019    O    1.67605    -0.01823   0.69206   
 C4020    C    1.62200    -0.02809   0.65849   
 H4021    H    1.61995    -0.02521   0.70827   
 O4022    O    1.32395    -0.09525   0.41586   
 C4023    C    1.37800    -0.08546   0.45275   
 H4024    H    1.38005    -0.08997   0.47603   
 O4025    O    1.57395    -0.03043   -0.24826  
 C4026    C    1.62800    -0.02064   -0.21137  
 H4027    H    1.63005    -0.02515   -0.18809  
 O4028    O    1.54205    -0.11475   -0.66506  
 C4029    C    1.59510    -0.10471   -0.63083  
 H4030    H    1.57515    -0.10351   -0.66599  
 O4031    O    1.29205    -0.08698   0.33112   
 C4032    C    1.34510    -0.07693   0.36535   
 H4033    H    1.32515    -0.07574   0.33019   
 O4034    O    1.79205    -0.08698   0.33112   
 C4035    C    1.84510    -0.07693   0.36535   
 H4036    H    1.82515    -0.07574   0.33019   
 O4037    O    1.96810    -0.04133   -0.13656  
 C4038    C    1.96710    -0.04530   0.04126   
 H4039    H    1.94510    -0.04464   0.01154   
 O4040    O    1.71810    -0.01356   0.85962   
 C4041    C    1.71710    -0.01752   1.03744   
 H4042    H    1.69510    -0.01686   1.00772   
 O4043    O    1.78190    -0.10615   0.52756   
 C4044    C    1.78290    -0.11011   0.70538   
 H4045    H    1.80490    -0.10945   0.67566   
 O4046    O    1.75000    -0.09165   0.16356   
 C4047    C    1.75000    -0.08750   -0.01359  
 H4048    H    1.75000    -0.08409   0.03073   
 O4049    O    1.75000    -0.01087   0.45325   
 C4050    C    1.75000    -0.00709   0.27476   
 H4051    H    1.75000    -0.01183   0.28987   
 O4052    O    2.00000    -0.07569   1.11736   
 C4053    C    2.00000    -0.07190   0.93888   
 H4054    H    2.00000    -0.07664   0.95399   
 O4055    O    1.57395    -0.12302   -0.58032  
 C4056    C    1.62800    -0.11324   -0.54343  
 H4057    H    1.63005    -0.11775   -0.52015  
 O4058    O    1.82395    -0.09525   0.41586   
 C4059    C    1.87800    -0.08546   0.45275   
 H4060    H    1.88005    -0.08997   0.47603   
 O4061    O    1.54205    -0.02216   -0.33300  
 C4062    C    1.59510    -0.01211   -0.29877  
 H4063    H    1.57515    -0.01092   -0.33393  
 O4064    O    1.42605    -0.04601   -0.30411  
 C4065    C    1.37200    -0.05587   -0.33768  
 H4066    H    1.36995    -0.05299   -0.28791  
 O4067    O    1.70795    -0.11436   0.23289   
 C4068    C    1.65490    -0.12434   0.19534   
 H4069    H    1.67485    -0.12390   0.15745   
 O4070    O    1.95795    -0.04955   -0.43122  
 C4071    C    1.90490    -0.05952   -0.46878  
 H4072    H    1.92485    -0.05909   -0.50667  
 O4073    O    1.95795    -0.05920   1.32729   
 C4074    C    1.90490    -0.04915   1.36153   
 H4075    H    1.92485    -0.04796   1.32636   
 O4076    O    1.70795    0.00562    0.66317   
 C4077    C    1.65490    0.01566    0.69741   
 H4078    H    1.67485    0.01686    0.66224   
 O4079    O    1.42605    -0.03043   -0.24826  
 C4080    C    1.37200    -0.02064   -0.21137  
 H4081    H    1.36995    -0.02515   -0.18809  
 O4082    O    1.82395    -0.01823   0.69206   
 C4083    C    1.87800    -0.02809   0.65849   
 H4084    H    1.88005    -0.02521   0.70827   
 O4085    O    1.57395    0.00955    1.68824   
 C4086    C    1.62800    -0.00031   1.65467   
 H4087    H    1.63005    0.00257    1.70444   
 O4088    O    1.54205    -0.04955   -0.43122  
 C4089    C    1.59510    -0.05952   -0.46878  
 H4090    H    1.57515    -0.05909   -0.50667  
 O4091    O    1.53190    -0.14385   -0.02366  
 C4092    C    2.03290    -0.04729   0.13058   
 H4093    H    2.05490    -0.04796   0.16030   
 O4094    O    1.78190    -0.02348   1.30458   
 C4095    C    1.78290    -0.01951   1.12676   
 H4096    H    1.80490    -0.02018   1.15648   
 O4097    O    1.71810    -0.11607   0.97252   
 C4098    C    1.71710    -0.11211   0.79470   
 H4099    H    1.69510    -0.11277   0.82442   
 O4100    O    1.75000    0.01087    0.05066   
 C4101    C    1.75000    0.00709    0.22914   
 H4102    H    1.75000    0.01183    0.21403   
 O4103    O    1.50000    -0.14654   0.38272   
 C4104    C    2.00000    -0.05773   0.89326   
 H4105    H    2.00000    -0.05299   0.87815   
 O4106    O    1.75000    -0.09354   -0.32377  
 C4107    C    1.75000    -0.09769   -0.14662  
 H4108    H    1.75000    -0.10110   -0.19095  
 O4109    O    1.92605    -0.04659   0.47596   
 C4110    C    1.87200    -0.03673   0.50953   
 H4111    H    1.86995    -0.03961   0.45975   
 O4112    O    1.67605    -0.01881   1.47213   
 C4113    C    1.62200    -0.00895   1.50571   
 H4114    H    1.61995    -0.01183   1.45593   
 O4115    O    1.70795    -0.07082   -0.39310  
 C4116    C    1.65490    -0.06085   -0.35555  
 H4117    H    1.67485    -0.06128   -0.31766  
 O4118    O    1.32395    0.00265    -0.24401  
 C4119    C    1.37800    -0.00713   -0.28090  
 H4120    H    1.38005    -0.00262   -0.30418  
 O4121    O    1.79205    -0.00562   -0.15927  
 C4122    C    1.84510    -0.05270   1.46679   
 H4123    H    1.82515    -0.05389   1.50195   
 O4124    O    1.54205    0.02216    0.83691   
 C4125    C    1.59510    0.01211    0.80267   
 H4126    H    1.57515    0.01092    0.83784   
 O4127    O    1.54205    -0.13564   0.27101   
 C4128    C    1.59510    -0.12566   0.30857   
 H4129    H    1.57515    -0.12610   0.34646   
 O4130    O    1.79205    -0.07082   -0.39310  
 C4131    C    1.84510    -0.06085   -0.35555  
 H4132    H    1.82515    -0.06128   -0.31766  
 O4133    O    1.32395    -0.07436   -0.52022  
 C4134    C    1.37800    -0.06450   -0.48665  
 H4135    H    1.38005    -0.06738   -0.53642  
 O4136    O    1.67605    -0.12698   1.08422   
 C4137    C    1.62200    -0.09973   -0.61296  
 H4138    H    1.61995    -0.09522   -0.63624  
 O4139    O    1.92605    -0.06216   0.42011   
 C4140    C    1.87200    -0.07195   0.38322   
 H4141    H    1.86995    -0.06744   0.35994   
 O4142    O    1.70795    -0.00562   -0.15927  
 C4143    C    1.65490    -0.01566   -0.19350  
 H4144    H    1.67485    -0.01686   -0.15834  
 C4145    C    1.50000    -0.05042   0.27071   
 C4146    C    1.50000    -0.04829   0.17525   
 C4147    C    1.75000    -0.11523   0.93483   
 C4148    C    1.75000    -0.11310   0.83936   
 C4149    C    2.00000    -0.05042   0.27071   
 C4150    C    2.00000    -0.04829   0.17525   
 C4151    C    1.75000    -0.02264   1.26689   
 C4152    C    1.75000    -0.02051   1.17142   
 C4153    C    1.75000    0.00412    0.06716   
 C4154    C    1.75000    0.00199    0.16263   
 C4155    C    2.00000    -0.06069   0.73128   
 C4156    C    2.00000    -0.06282   0.82675   
 C4157    C    1.50000    -0.06069   0.73128   
 C4158    C    1.50000    -0.06282   0.82675   
 C4159    C    1.75000    -0.08847   -0.26490  
 C4160    C    1.75000    -0.09060   -0.16943  
 C4161    C    1.43065    -0.06840   0.45494   
 C4162    C    1.40190    -0.07372   0.43585   
 C4163    C    1.68065    -0.00358   -0.20918  
 C4164    C    1.65190    -0.00891   -0.22827  
 C4165    C    1.68065    -0.09618   -0.54124  
 C4166    C    1.65190    -0.10150   -0.56033  
 C4167    C    1.93065    -0.06840   0.45494   
 C4168    C    1.90190    -0.07372   0.43585   
 C4169    C    1.56935    -0.13531   0.21499   
 C4170    C    1.59810    -0.12998   0.23409   
 C4171    C    1.81935    -0.07049   -0.44912  
 C4172    C    1.84810    -0.06517   -0.43003  
 C4173    C    1.56935    -0.04271   0.54705   
 C4174    C    1.59810    -0.03739   0.56615   
 C4175    C    1.31935    -0.07049   -0.44912  
 C4176    C    1.34810    -0.06517   -0.43003  
 C4177    C    1.56935    -0.06840   0.45494   
 C4178    C    1.59810    -0.07372   0.43585   
 C4179    C    1.31935    -0.00358   -0.20918  
 C4180    C    1.34810    -0.00891   -0.22827  
 C4181    C    1.81935    -0.04062   1.45112   
 C4182    C    1.84810    -0.04594   1.43202   
 C4183    C    1.56935    0.02419    0.78700   
 C4184    C    1.59810    0.01887    0.76790   
 C4185    C    1.68065    -0.07049   -0.44912  
 C4186    C    1.65190    -0.06517   -0.43003  
 C4187    C    1.43065    -0.04271   0.54705   
 C4188    C    1.40190    -0.03739   0.56615   
 C4189    C    1.93065    -0.04271   0.54705   
 C4190    C    1.90190    -0.03739   0.56615   
 C4191    C    1.68065    -0.01494   1.54323   
 C4192    C    1.65190    -0.00961   1.56232   
 C4193    C    1.50000    -0.04217   -0.09887  
 C4194    C    1.50000    -0.04430   -0.00340  
 C4195    C    1.75000    -0.10699   0.56525   
 C4196    C    1.75000    -0.10912   0.66072   
 C4197    C    2.00000    -0.04217   -0.09887  
 C4198    C    2.00000    -0.04430   -0.00340  
 C4199    C    1.75000    -0.01440   0.89731   
 C4200    C    1.75000    -0.01653   0.99277   
 C4201    C    1.75000    -0.09671   0.10468   
 C4202    C    1.75000    -0.09459   0.00922   
 C4203    C    1.50000    -0.06894   1.10086   
 C4204    C    1.50000    -0.06681   1.00539   
 C4205    C    1.75000    -0.00412   0.43674   
 C4206    C    1.75000    -0.00199   0.34128   
 C4207    C    2.00000    -0.06894   1.10086   
 C4208    C    2.00000    -0.06681   1.00539   
 C4209    C    1.56935    -0.04988   -0.37521  
 C4210    C    1.59810    -0.05520   -0.39430  
 C4211    C    1.31935    -0.02210   0.62097   
 C4212    C    1.34810    -0.02743   0.60188   
 C4213    C    1.81935    -0.02210   0.62097   
 C4214    C    1.84810    -0.02743   0.60188   
 C4215    C    1.56935    0.00568    1.61714   
 C4216    C    1.59810    0.00035    1.59805   
 C4217    C    1.93065    -0.06123   1.37720   
 C4218    C    1.90190    -0.05591   1.39629   
 C4219    C    1.68065    0.00358    0.71308   
 C4220    C    1.65190    0.00891    0.73218   
 C4221    C    1.68065    -0.08901   0.38102   
 C4222    C    1.65190    -0.08369   0.40012   
 C4223    C    1.43065    -0.02419   -0.28309  
 C4224    C    1.40190    -0.01887   -0.26400  
 C4225    C    1.43065    -0.04988   -0.37521  
 C4226    C    1.40190    -0.05520   -0.39430  
 C4227    C    1.68065    -0.02210   0.62097   
 C4228    C    1.65190    -0.02743   0.60188   
 C4229    C    1.68065    -0.11469   0.28891   
 C4230    C    1.65190    -0.12002   0.26982   
 C4231    C    1.93065    -0.04988   -0.37521  
 C4232    C    1.90190    -0.05520   -0.39430  
 C4233    C    1.31935    -0.08901   0.38102   
 C4234    C    1.34810    -0.08369   0.40012   
 C4235    C    1.56935    -0.02419   -0.28309  
 C4236    C    1.59810    -0.01887   -0.26400  
 C4237    C    1.56935    -0.11679   -0.61515  
 C4238    C    1.59810    -0.11146   -0.59606  
 C4239    C    1.81935    -0.08901   0.38102   
 C4240    C    1.84810    -0.08369   0.40012   
 Zn4241   Zn   -0.95660   0.44605    0.42894   
 Zn4242   Zn   -0.70660   0.38124    1.09306   
 Zn4243   Zn   -0.54340   0.44605    0.42894   
 Zn4244   Zn   -0.79340   0.47383    1.42511   
 Zn4245   Zn   -1.04340   0.44605    0.42894   
 Zn4246   Zn   -0.75000   0.49961    -0.11989  
 Zn4247   Zn   -0.50000   0.43480    0.54423   
 Zn4248   Zn   -1.00000   0.43480    0.54423   
 Zn4249   Zn   -0.75000   0.42310    -0.39430  
 Zn4250   Zn   -1.00000   0.45087    0.60188   
 Zn4251   Zn   -0.75000   0.40702    -0.45195  
 Zn4252   Zn   -0.95660   0.35346    0.09688   
 Zn4253   Zn   -0.75000   0.51569    -0.06224  
 Zn4254   Zn   -0.70660   0.47383    1.42511   
 Zn4255   Zn   -0.79340   0.38124    1.09306   
 Zn4256   Zn   -1.00000   0.35828    0.26982   
 Zn4257   Zn   -1.04340   0.46136    -0.25709  
 Zn4258   Zn   -0.95660   0.36876    -0.58915  
 Zn4259   Zn   -0.70660   0.48913    0.73908   
 Zn4260   Zn   -0.95660   0.46136    -0.25709  
 Zn4261   Zn   -0.75000   0.39172    0.23409   
 Zn4262   Zn   -0.75000   0.50039    0.62379   
 Zn4263   Zn   -1.00000   0.47261    -0.37238  
 Zn4264   Zn   -0.70660   0.39654    0.40702   
 Zn4265   Zn   -0.75000   0.48431    0.56615   
 Zn4266   Zn   -0.50000   0.45653    -0.43003  
 Zn4267   Zn   -0.54340   0.46136    -0.25709  
 Zn4268   Zn   -0.79340   0.48913    0.73908   
 Zn4269   Zn   -0.79340   0.39654    0.40702   
 Zn4270   Zn   -0.75000   0.40779    0.29173   
 Zn4271   Zn   -1.00000   0.45653    -0.43003  
 Zn4272   Zn   -1.00000   0.38001    -0.70444  
 O4273    O    -1.00000   0.44444    0.50100   
 O4274    O    -0.50000   0.44444    0.50100   
 O4275    O    -0.75000   0.47222    1.49717   
 O4276    O    -0.75000   0.41667    -0.49518  
 O4277    O    -1.00000   0.46296    -0.32915  
 O4278    O    -1.00000   0.37037    -0.66121  
 O4279    O    -0.75000   0.49074    0.66703   
 O4280    O    -0.75000   0.39815    0.33497   
 O4281    O    -0.96810   0.44874    0.30840   
 C4282    C    -0.96710   0.45271    0.13058   
 H4283    H    -0.94510   0.45204    0.16030   
 O4284    O    -0.71810   0.38393    0.97252   
 C4285    C    -0.71710   0.38789    0.79470   
 H4286    H    -0.69510   0.38723    0.82442   
 O4287    O    -0.53190   0.44874    0.30840   
 C4288    C    -0.53290   0.45271    0.13058   
 H4289    H    -0.55490   0.45204    0.16030   
 O4290    O    -0.78190   0.47652    1.30458   
 C4291    C    -0.78290   0.48049    1.12676   
 H4292    H    -0.80490   0.47982    1.15648   
 O4293    O    -1.03190   0.44874    0.30840   
 C4294    C    -1.03290   0.45271    0.13058   
 H4295    H    -1.05490   0.45204    0.16030   
 O4296    O    -0.75000   0.49906    0.00829   
 C4297    C    -0.75000   0.49490    0.18544   
 H4298    H    -0.75000   0.49149    0.14111   
 O4299    O    -0.50000   0.43424    0.67240   
 C4300    C    -0.50000   0.43009    0.84956   
 H4301    H    -0.50000   0.42668    0.80523   
 O4302    O    -1.00000   0.43424    0.67240   
 C4303    C    -1.00000   0.43009    0.84956   
 H4304    H    -1.00000   0.42668    0.80523   
 O4305    O    -0.75000   0.41828    -0.28140  
 C4306    C    -0.75000   0.41450    -0.10292  
 H4307    H    -0.75000   0.41923    -0.11803  
 O4308    O    -1.00000   0.44606    0.71478   
 C4309    C    -1.00000   0.44227    0.89326   
 H4310    H    -1.00000   0.44701    0.87815   
 O4311    O    -1.07395   0.43784    0.42011   
 C4312    C    -1.12800   0.42805    0.38322   
 H4313    H    -1.13005   0.43256    0.35994   
 O4314    O    -0.82395   0.50265    -0.24401  
 C4315    C    -0.87800   0.49287    -0.28090  
 H4316    H    -0.88005   0.49738    -0.30418  
 O4317    O    -0.79205   0.40179    -0.49133  
 C4318    C    -0.84510   0.39174    -0.52556  
 H4319    H    -0.82515   0.39055    -0.49040  
 O4320    O    -1.04205   0.42957    0.50485   
 C4321    C    -1.09510   0.41952    0.47061   
 H4322    H    -1.07515   0.41833    0.50578   
 O4323    O    -0.54205   0.42957    0.50485   
 C4324    C    -0.59510   0.41952    0.47061   
 H4325    H    -0.57515   0.41833    0.50578   
 O4326    O    -0.92605   0.36082    0.14390   
 C4327    C    -0.87200   0.37068    0.17747   
 H4328    H    -0.86995   0.36780    0.12770   
 O4329    O    -0.67605   0.38860    1.14008   
 C4330    C    -0.62200   0.43550    -0.48665  
 H4331    H    -0.61995   0.43262    -0.53642  
 O4332    O    -0.92605   0.45341    0.47596   
 C4333    C    -0.87200   0.46327    0.50953   
 H4334    H    -0.86995   0.46039    0.45975   
 O4335    O    -1.20795   0.42918    -0.39310  
 C4336    C    -1.15490   0.43915    -0.35555  
 H4337    H    -1.17485   0.43872    -0.31766  
 O4338    O    -0.95795   0.45696    0.60307   
 C4339    C    -0.90490   0.46693    0.64063   
 H4340    H    -0.92485   0.46649    0.67851   
 O4341    O    -0.95795   0.42957    0.50485   
 C4342    C    -0.90490   0.41952    0.47061   
 H4343    H    -0.92485   0.41833    0.50578   
 O4344    O    -1.20795   0.49438    -0.15927  
 C4345    C    -1.15490   0.48434    -0.19350  
 H4346    H    -1.17485   0.48314    -0.15834  
 O4347    O    -0.67605   0.46562    1.41628   
 C4348    C    -0.62200   0.45583    1.37939   
 H4349    H    -0.61995   0.46034    1.35611   
 O4350    O    -0.92605   0.53043    0.75217   
 C4351    C    -0.87200   0.52064    0.71527   
 H4352    H    -0.86995   0.52515    0.69200   
 O4353    O    -0.92605   0.43784    0.42011   
 C4354    C    -0.87200   0.42805    0.38322   
 H4355    H    -0.86995   0.43256    0.35994   
 O4356    O    -0.82395   0.42564    -0.52022  
 C4357    C    -0.87800   0.43550    -0.48665  
 H4358    H    -0.88005   0.43262    -0.53642  
 O4359    O    -1.07395   0.45341    0.47596   
 C4360    C    -1.12800   0.46327    0.50953   
 H4361    H    -1.13005   0.46039    0.45975   
 O4362    O    -0.54205   0.45696    0.60307   
 C4363    C    -0.59510   0.46693    0.64063   
 H4364    H    -0.57515   0.46649    0.67851   
 O4365    O    -0.79205   0.52177    -0.06105  
 C4366    C    -0.84510   0.49471    1.63680   
 H4367    H    -0.82515   0.49427    1.67469   
 O4368    O    -1.04205   0.45696    0.60307   
 C4369    C    -1.09510   0.46693    0.64063   
 H4370    H    -1.07515   0.46649    0.67851   
 O4371    O    -1.03190   0.45867    -0.13656  
 C4372    C    -1.03290   0.45470    0.04126   
 H4373    H    -1.05490   0.45536    0.01154   
 O4374    O    -0.78190   0.39385    0.52756   
 C4375    C    -0.78290   0.38989    0.70538   
 H4376    H    -0.80490   0.39055    0.67566   
 O4377    O    -0.46810   0.45867    -0.13656  
 C4378    C    -0.46710   0.45470    0.04126   
 H4379    H    -0.44510   0.45536    0.01154   
 O4380    O    -0.71810   0.48644    0.85962   
 C4381    C    -0.71710   0.48248    1.03744   
 H4382    H    -0.69510   0.48314    1.00772   
 O4383    O    -0.96810   0.45867    -0.13656  
 C4384    C    -0.96710   0.45470    0.04126   
 H4385    H    -0.94510   0.45536    0.01154   
 O4386    O    -0.75000   0.39654    0.12119   
 C4387    C    -0.75000   0.40032    -0.05729  
 H4388    H    -0.75000   0.39558    -0.04219  
 O4389    O    -1.00000   0.42431    1.11736   
 C4390    C    -1.00000   0.42810    0.93888   
 H4391    H    -1.00000   0.42336    0.95399   
 O4392    O    -0.75000   0.50094    0.49562   
 C4393    C    -0.75000   0.50510    0.31846   
 H4394    H    -0.75000   0.50851    0.36279   
 O4395    O    -0.50000   0.43613    1.15973   
 C4396    C    -0.50000   0.44028    0.98258   
 H4397    H    -0.50000   0.44369    1.02691   
 O4398    O    -1.00000   0.43613    1.15973   
 C4399    C    -1.00000   0.44028    0.98258   
 H4400    H    -1.00000   0.44369    1.02691   
 O4401    O    -0.92605   0.45399    -0.30411  
 C4402    C    -0.87200   0.44413    -0.33768  
 H4403    H    -0.86995   0.44701    -0.28791  
 O4404    O    -1.17605   0.48177    0.69206   
 C4405    C    -1.12200   0.47191    0.65849   
 H4406    H    -1.11995   0.47479    0.70827   
 O4407    O    -0.70795   0.47823    0.56495   
 C4408    C    -0.65490   0.46826    0.52739   
 H4409    H    -0.67485   0.46869    0.48951   
 O4410    O    -0.95795   0.50601    1.56113   
 C4411    C    -0.90490   0.49603    1.52357   
 H4412    H    -0.92485   0.49647    1.48568   
 O4413    O    -1.20795   0.47823    0.56495   
 C4414    C    -1.15490   0.46826    0.52739   
 H4415    H    -1.17485   0.46869    0.48951   
 O4416    O    -0.57395   0.43253    1.41203   
 C4417    C    -0.62800   0.44232    1.44892   
 H4418    H    -0.63005   0.43781    1.47220   
 O4419    O    -0.82395   0.49735    0.74791   
 C4420    C    -0.87800   0.50713    0.78481   
 H4421    H    -0.88005   0.50262    0.80808   
 O4422    O    -0.82395   0.40475    0.41586   
 C4423    C    -0.87800   0.41454    0.45275   
 H4424    H    -0.88005   0.41003    0.47603   
 O4425    O    -0.79205   0.41302    0.33112   
 C4426    C    -0.84510   0.42307    0.36535   
 H4427    H    -0.82515   0.42426    0.33019   
 O4428    O    -1.04205   0.47784    -0.33300  
 C4429    C    -1.09510   0.48789    -0.29877  
 H4430    H    -1.07515   0.48908    -0.33393  
 O4431    O    -1.04205   0.45045    -0.43122  
 C4432    C    -1.09510   0.44048    -0.46878  
 H4433    H    -1.07515   0.44091    -0.50667  
 O4434    O    -0.79205   0.47823    0.56495   
 C4435    C    -0.84510   0.46826    0.52739   
 H4436    H    -0.82515   0.46869    0.48951   
 O4437    O    -0.82395   0.38918    0.36000   
 C4438    C    -0.87800   0.37932    0.32643   
 H4439    H    -0.88005   0.38220    0.37621   
 O4440    O    -0.57395   0.45399    -0.30411  
 C4441    C    -0.62800   0.44413    -0.33768  
 H4442    H    -0.63005   0.44701    -0.28791  
 O4443    O    -0.82395   0.48177    0.69206   
 C4444    C    -0.87800   0.47191    0.65849   
 H4445    H    -0.88005   0.47479    0.70827   
 O4446    O    -1.17605   0.40475    0.41586   
 C4447    C    -1.12200   0.41454    0.45275   
 H4448    H    -1.11995   0.41003    0.47603   
 O4449    O    -0.92605   0.46957    -0.24826  
 C4450    C    -0.87200   0.47936    -0.21137  
 H4451    H    -0.86995   0.47485    -0.18809  
 O4452    O    -0.95795   0.38525    -0.66506  
 C4453    C    -0.90490   0.39529    -0.63083  
 H4454    H    -0.92485   0.39649    -0.66599  
 O4455    O    -1.20795   0.41302    0.33112   
 C4456    C    -1.15490   0.42307    0.36535   
 H4457    H    -1.17485   0.42426    0.33019   
 O4458    O    -0.70795   0.41302    0.33112   
 C4459    C    -0.65490   0.42307    0.36535   
 H4460    H    -0.67485   0.42426    0.33019   
 O4461    O    -0.53190   0.45867    -0.13656  
 C4462    C    -0.53290   0.45470    0.04126   
 H4463    H    -0.55490   0.45536    0.01154   
 O4464    O    -0.78190   0.48644    0.85962   
 C4465    C    -0.78290   0.48248    1.03744   
 H4466    H    -0.80490   0.48314    1.00772   
 O4467    O    -0.71810   0.39385    0.52756   
 C4468    C    -0.71710   0.38989    0.70538   
 H4469    H    -0.69510   0.39055    0.67566   
 O4470    O    -0.75000   0.40835    0.16356   
 C4471    C    -0.75000   0.41250    -0.01359  
 H4472    H    -0.75000   0.41591    0.03073   
 O4473    O    -0.75000   0.48913    0.45325   
 C4474    C    -0.75000   0.49291    0.27476   
 H4475    H    -0.75000   0.48817    0.28987   
 O4476    O    -0.50000   0.42431    1.11736   
 C4477    C    -0.50000   0.42810    0.93888   
 H4478    H    -0.50000   0.42336    0.95399   
 O4479    O    -0.92605   0.37698    -0.58032  
 C4480    C    -0.87200   0.38676    -0.54343  
 H4481    H    -0.86995   0.38225    -0.52015  
 O4482    O    -0.67605   0.40475    0.41586   
 C4483    C    -0.62200   0.41454    0.45275   
 H4484    H    -0.61995   0.41003    0.47603   
 O4485    O    -0.95795   0.47784    -0.33300  
 C4486    C    -0.90490   0.48789    -0.29877  
 H4487    H    -0.92485   0.48908    -0.33393  
 O4488    O    -1.07395   0.45399    -0.30411  
 C4489    C    -1.12800   0.44413    -0.33768  
 H4490    H    -1.13005   0.44701    -0.28791  
 O4491    O    -0.79205   0.38564    0.23289   
 C4492    C    -0.84510   0.37566    0.19534   
 H4493    H    -0.82515   0.37610    0.15745   
 O4494    O    -0.54205   0.45045    -0.43122  
 C4495    C    -0.59510   0.44048    -0.46878  
 H4496    H    -0.57515   0.44091    -0.50667  
 O4497    O    -0.54205   0.44080    1.32729   
 C4498    C    -0.59510   0.45085    1.36153   
 H4499    H    -0.57515   0.45204    1.32636   
 O4500    O    -0.79205   0.50562    0.66317   
 C4501    C    -0.84510   0.51566    0.69741   
 H4502    H    -0.82515   0.51686    0.66224   
 O4503    O    -1.07395   0.46957    -0.24826  
 C4504    C    -1.12800   0.47936    -0.21137  
 H4505    H    -1.13005   0.47485    -0.18809  
 O4506    O    -0.67605   0.48177    0.69206   
 C4507    C    -0.62200   0.47191    0.65849   
 H4508    H    -0.61995   0.47479    0.70827   
 O4509    O    -0.92605   0.50955    1.68824   
 C4510    C    -0.87200   0.49969    1.65467   
 H4511    H    -0.86995   0.50257    1.70444   
 O4512    O    -0.95795   0.45045    -0.43122  
 C4513    C    -0.90490   0.44048    -0.46878  
 H4514    H    -0.92485   0.44091    -0.50667  
 O4515    O    -0.96810   0.35615    -0.02366  
 C4516    C    -0.46710   0.45271    0.13058   
 H4517    H    -0.44510   0.45204    0.16030   
 O4518    O    -0.71810   0.47652    1.30458   
 C4519    C    -0.71710   0.48049    1.12676   
 H4520    H    -0.69510   0.47982    1.15648   
 O4521    O    -0.78190   0.38393    0.97252   
 C4522    C    -0.78290   0.38789    0.79470   
 H4523    H    -0.80490   0.38723    0.82442   
 O4524    O    -0.75000   0.51087    0.05066   
 C4525    C    -0.75000   0.50709    0.22914   
 H4526    H    -0.75000   0.51183    0.21403   
 O4527    O    -1.00000   0.35346    0.38272   
 C4528    C    -0.50000   0.44227    0.89326   
 H4529    H    -0.50000   0.44701    0.87815   
 O4530    O    -0.75000   0.40646    -0.32377  
 C4531    C    -0.75000   0.40231    -0.14662  
 H4532    H    -0.75000   0.39890    -0.19095  
 O4533    O    -0.57395   0.45341    0.47596   
 C4534    C    -0.62800   0.46327    0.50953   
 H4535    H    -0.63005   0.46039    0.45975   
 O4536    O    -0.82395   0.48119    1.47213   
 C4537    C    -0.87800   0.49105    1.50571   
 H4538    H    -0.88005   0.48817    1.45593   
 O4539    O    -0.79205   0.42918    -0.39310  
 C4540    C    -0.84510   0.43915    -0.35555  
 H4541    H    -0.82515   0.43872    -0.31766  
 O4542    O    -1.17605   0.50265    -0.24401  
 C4543    C    -1.12200   0.49287    -0.28090  
 H4544    H    -1.11995   0.49738    -0.30418  
 O4545    O    -0.70795   0.49438    -0.15927  
 C4546    C    -0.65490   0.44730    1.46679   
 H4547    H    -0.67485   0.44611    1.50195   
 O4548    O    -0.95795   0.52216    0.83691   
 C4549    C    -0.90490   0.51211    0.80267   
 H4550    H    -0.92485   0.51092    0.83784   
 O4551    O    -0.95795   0.36436    0.27101   
 C4552    C    -0.90490   0.37434    0.30857   
 H4553    H    -0.92485   0.37390    0.34646   
 O4554    O    -0.70795   0.42918    -0.39310  
 C4555    C    -0.65490   0.43915    -0.35555  
 H4556    H    -0.67485   0.43872    -0.31766  
 O4557    O    -1.17605   0.42564    -0.52022  
 C4558    C    -1.12200   0.43550    -0.48665  
 H4559    H    -1.11995   0.43262    -0.53642  
 O4560    O    -0.82395   0.37302    1.08422   
 C4561    C    -0.87800   0.40027    -0.61296  
 H4562    H    -0.88005   0.40478    -0.63624  
 O4563    O    -0.57395   0.43784    0.42011   
 C4564    C    -0.62800   0.42805    0.38322   
 H4565    H    -0.63005   0.43256    0.35994   
 O4566    O    -0.79205   0.49438    -0.15927  
 C4567    C    -0.84510   0.48434    -0.19350  
 H4568    H    -0.82515   0.48314    -0.15834  
 C4569    C    -1.00000   0.44958    0.27071   
 C4570    C    -1.00000   0.45171    0.17525   
 C4571    C    -0.75000   0.38477    0.93483   
 C4572    C    -0.75000   0.38690    0.83936   
 C4573    C    -0.50000   0.44958    0.27071   
 C4574    C    -0.50000   0.45171    0.17525   
 C4575    C    -0.75000   0.47736    1.26689   
 C4576    C    -0.75000   0.47949    1.17142   
 C4577    C    -0.75000   0.50412    0.06716   
 C4578    C    -0.75000   0.50199    0.16263   
 C4579    C    -0.50000   0.43931    0.73128   
 C4580    C    -0.50000   0.43718    0.82675   
 C4581    C    -1.00000   0.43931    0.73128   
 C4582    C    -1.00000   0.43718    0.82675   
 C4583    C    -0.75000   0.41153    -0.26490  
 C4584    C    -0.75000   0.40940    -0.16943  
 C4585    C    -1.06935   0.43160    0.45494   
 C4586    C    -1.09810   0.42628    0.43585   
 C4587    C    -0.81935   0.49642    -0.20918  
 C4588    C    -0.84810   0.49109    -0.22827  
 C4589    C    -0.81935   0.40382    -0.54124  
 C4590    C    -0.84810   0.39850    -0.56033  
 C4591    C    -0.56935   0.43160    0.45494   
 C4592    C    -0.59810   0.42628    0.43585   
 C4593    C    -0.93065   0.36469    0.21499   
 C4594    C    -0.90190   0.37002    0.23409   
 C4595    C    -0.68065   0.42951    -0.44912  
 C4596    C    -0.65190   0.43483    -0.43003  
 C4597    C    -0.93065   0.45729    0.54705   
 C4598    C    -0.90190   0.46261    0.56615   
 C4599    C    -1.18065   0.42951    -0.44912  
 C4600    C    -1.15190   0.43483    -0.43003  
 C4601    C    -0.93065   0.43160    0.45494   
 C4602    C    -0.90190   0.42628    0.43585   
 C4603    C    -1.18065   0.49642    -0.20918  
 C4604    C    -1.15190   0.49109    -0.22827  
 C4605    C    -0.68065   0.45938    1.45112   
 C4606    C    -0.65190   0.45406    1.43202   
 C4607    C    -0.93065   0.52419    0.78700   
 C4608    C    -0.90190   0.51887    0.76790   
 C4609    C    -0.81935   0.42951    -0.44912  
 C4610    C    -0.84810   0.43483    -0.43003  
 C4611    C    -1.06935   0.45729    0.54705   
 C4612    C    -1.09810   0.46261    0.56615   
 C4613    C    -0.56935   0.45729    0.54705   
 C4614    C    -0.59810   0.46261    0.56615   
 C4615    C    -0.81935   0.48506    1.54323   
 C4616    C    -0.84810   0.49039    1.56232   
 C4617    C    -1.00000   0.45783    -0.09887  
 C4618    C    -1.00000   0.45570    -0.00340  
 C4619    C    -0.75000   0.39301    0.56525   
 C4620    C    -0.75000   0.39088    0.66072   
 C4621    C    -0.50000   0.45783    -0.09887  
 C4622    C    -0.50000   0.45570    -0.00340  
 C4623    C    -0.75000   0.48560    0.89731   
 C4624    C    -0.75000   0.48347    0.99277   
 C4625    C    -0.75000   0.40329    0.10468   
 C4626    C    -0.75000   0.40541    0.00922   
 C4627    C    -1.00000   0.43106    1.10086   
 C4628    C    -1.00000   0.43319    1.00539   
 C4629    C    -0.75000   0.49588    0.43674   
 C4630    C    -0.75000   0.49801    0.34128   
 C4631    C    -0.50000   0.43106    1.10086   
 C4632    C    -0.50000   0.43319    1.00539   
 C4633    C    -0.93065   0.45012    -0.37521  
 C4634    C    -0.90190   0.44480    -0.39430  
 C4635    C    -1.18065   0.47790    0.62097   
 C4636    C    -1.15190   0.47257    0.60188   
 C4637    C    -0.68065   0.47790    0.62097   
 C4638    C    -0.65190   0.47257    0.60188   
 C4639    C    -0.93065   0.50568    1.61714   
 C4640    C    -0.90190   0.50035    1.59805   
 C4641    C    -0.56935   0.43877    1.37720   
 C4642    C    -0.59810   0.44409    1.39629   
 C4643    C    -0.81935   0.50358    0.71308   
 C4644    C    -0.84810   0.50891    0.73218   
 C4645    C    -0.81935   0.41099    0.38102   
 C4646    C    -0.84810   0.41631    0.40012   
 C4647    C    -1.06935   0.47581    -0.28309  
 C4648    C    -1.09810   0.48113    -0.26400  
 C4649    C    -1.06935   0.45012    -0.37521  
 C4650    C    -1.09810   0.44480    -0.39430  
 C4651    C    -0.81935   0.47790    0.62097   
 C4652    C    -0.84810   0.47257    0.60188   
 C4653    C    -0.81935   0.38531    0.28891   
 C4654    C    -0.84810   0.37998    0.26982   
 C4655    C    -0.56935   0.45012    -0.37521  
 C4656    C    -0.59810   0.44480    -0.39430  
 C4657    C    -1.18065   0.41099    0.38102   
 C4658    C    -1.15190   0.41631    0.40012   
 C4659    C    -0.93065   0.47581    -0.28309  
 C4660    C    -0.90190   0.48113    -0.26400  
 C4661    C    -0.93065   0.38321    -0.61515  
 C4662    C    -0.90190   0.38854    -0.59606  
 C4663    C    -0.68065   0.41099    0.38102   
 C4664    C    -0.65190   0.41631    0.40012   
 Zn4665   Zn   2.54340    -0.05395   0.42894   
 Zn4666   Zn   2.79340    -0.11876   1.09306   
 Zn4667   Zn   2.95660    -0.05395   0.42894   
 Zn4668   Zn   2.70660    -0.02617   1.42511   
 Zn4669   Zn   2.45660    -0.05395   0.42894   
 Zn4670   Zn   2.75000    -0.00039   -0.11989  
 Zn4671   Zn   3.00000    -0.06520   0.54423   
 Zn4672   Zn   2.50000    -0.06520   0.54423   
 Zn4673   Zn   2.75000    -0.07690   -0.39430  
 Zn4674   Zn   2.50000    -0.04913   0.60188   
 Zn4675   Zn   2.75000    -0.09298   -0.45195  
 Zn4676   Zn   2.54340    -0.14654   0.09688   
 Zn4677   Zn   2.75000    0.01569    -0.06224  
 Zn4678   Zn   2.79340    -0.02617   1.42511   
 Zn4679   Zn   2.70660    -0.11876   1.09306   
 Zn4680   Zn   2.50000    -0.14172   0.26982   
 Zn4681   Zn   2.45660    -0.03864   -0.25709  
 Zn4682   Zn   2.54340    -0.13124   -0.58915  
 Zn4683   Zn   2.79340    -0.01087   0.73908   
 Zn4684   Zn   2.54340    -0.03864   -0.25709  
 Zn4685   Zn   2.75000    -0.10828   0.23409   
 Zn4686   Zn   2.75000    0.00039    0.62379   
 Zn4687   Zn   2.50000    -0.02739   -0.37238  
 Zn4688   Zn   2.79340    -0.10346   0.40702   
 Zn4689   Zn   2.75000    -0.01569   0.56615   
 Zn4690   Zn   3.00000    -0.04347   -0.43003  
 Zn4691   Zn   2.95660    -0.03864   -0.25709  
 Zn4692   Zn   2.70660    -0.01087   0.73908   
 Zn4693   Zn   2.70660    -0.10346   0.40702   
 Zn4694   Zn   2.75000    -0.09221   0.29173   
 Zn4695   Zn   2.50000    -0.04347   -0.43003  
 Zn4696   Zn   2.50000    -0.11999   -0.70444  
 O4697    O    2.50000    -0.05556   0.50100   
 O4698    O    3.00000    -0.05556   0.50100   
 O4699    O    2.75000    -0.02778   1.49717   
 O4700    O    2.75000    -0.08333   -0.49518  
 O4701    O    2.50000    -0.03704   -0.32915  
 O4702    O    2.50000    -0.12963   -0.66121  
 O4703    O    2.75000    -0.00926   0.66703   
 O4704    O    2.75000    -0.10185   0.33497   
 O4705    O    2.53190    -0.05126   0.30840   
 C4706    C    2.53290    -0.04729   0.13058   
 H4707    H    2.55490    -0.04796   0.16030   
 O4708    O    2.78190    -0.11607   0.97252   
 C4709    C    2.78290    -0.11211   0.79470   
 H4710    H    2.80490    -0.11277   0.82442   
 O4711    O    2.96810    -0.05126   0.30840   
 C4712    C    2.96710    -0.04729   0.13058   
 H4713    H    2.94510    -0.04796   0.16030   
 O4714    O    2.71810    -0.02348   1.30458   
 C4715    C    2.71710    -0.01951   1.12676   
 H4716    H    2.69510    -0.02018   1.15648   
 O4717    O    2.46810    -0.05126   0.30840   
 C4718    C    2.46710    -0.04729   0.13058   
 H4719    H    2.44510    -0.04796   0.16030   
 O4720    O    2.75000    -0.00094   0.00829   
 C4721    C    2.75000    -0.00510   0.18544   
 H4722    H    2.75000    -0.00851   0.14111   
 O4723    O    3.00000    -0.06576   0.67240   
 C4724    C    3.00000    -0.06991   0.84956   
 H4725    H    3.00000    -0.07332   0.80523   
 O4726    O    2.50000    -0.06576   0.67240   
 C4727    C    2.50000    -0.06991   0.84956   
 H4728    H    2.50000    -0.07332   0.80523   
 O4729    O    2.75000    -0.08172   -0.28140  
 C4730    C    2.75000    -0.08550   -0.10292  
 H4731    H    2.75000    -0.08077   -0.11803  
 O4732    O    2.50000    -0.05394   0.71478   
 C4733    C    2.50000    -0.05773   0.89326   
 H4734    H    2.50000    -0.05299   0.87815   
 O4735    O    2.42605    -0.06216   0.42011   
 C4736    C    2.37200    -0.07195   0.38322   
 H4737    H    2.36995    -0.06744   0.35994   
 O4738    O    2.67605    0.00265    -0.24401  
 C4739    C    2.62200    -0.00713   -0.28090  
 H4740    H    2.61995    -0.00262   -0.30418  
 O4741    O    2.70795    -0.09821   -0.49133  
 C4742    C    2.65490    -0.10826   -0.52556  
 H4743    H    2.67485    -0.10945   -0.49040  
 O4744    O    2.45795    -0.07043   0.50485   
 C4745    C    2.40490    -0.08048   0.47061   
 H4746    H    2.42485    -0.08167   0.50578   
 O4747    O    2.95795    -0.07043   0.50485   
 C4748    C    2.90490    -0.08048   0.47061   
 H4749    H    2.92485    -0.08167   0.50578   
 O4750    O    2.57395    -0.13918   0.14390   
 C4751    C    2.62800    -0.12932   0.17747   
 H4752    H    2.63005    -0.13220   0.12770   
 O4753    O    2.82395    -0.11140   1.14008   
 C4754    C    2.87800    -0.06450   -0.48665  
 H4755    H    2.88005    -0.06738   -0.53642  
 O4756    O    2.57395    -0.04659   0.47596   
 C4757    C    2.62800    -0.03673   0.50953   
 H4758    H    2.63005    -0.03961   0.45975   
 O4759    O    2.29205    -0.07082   -0.39310  
 C4760    C    2.34510    -0.06085   -0.35555  
 H4761    H    2.32515    -0.06128   -0.31766  
 O4762    O    2.54205    -0.04304   0.60307   
 C4763    C    2.59510    -0.03307   0.64063   
 H4764    H    2.57515    -0.03351   0.67851   
 O4765    O    2.54205    -0.07043   0.50485   
 C4766    C    2.59510    -0.08048   0.47061   
 H4767    H    2.57515    -0.08167   0.50578   
 O4768    O    2.29205    -0.00562   -0.15927  
 C4769    C    2.34510    -0.01566   -0.19350  
 H4770    H    2.32515    -0.01686   -0.15834  
 O4771    O    2.82395    -0.03438   1.41628   
 C4772    C    2.87800    -0.04417   1.37939   
 H4773    H    2.88005    -0.03966   1.35611   
 O4774    O    2.57395    0.03043    0.75217   
 C4775    C    2.62800    0.02064    0.71527   
 H4776    H    2.63005    0.02515    0.69200   
 O4777    O    2.57395    -0.06216   0.42011   
 C4778    C    2.62800    -0.07195   0.38322   
 H4779    H    2.63005    -0.06744   0.35994   
 O4780    O    2.67605    -0.07436   -0.52022  
 C4781    C    2.62200    -0.06450   -0.48665  
 H4782    H    2.61995    -0.06738   -0.53642  
 O4783    O    2.42605    -0.04659   0.47596   
 C4784    C    2.37200    -0.03673   0.50953   
 H4785    H    2.36995    -0.03961   0.45975   
 O4786    O    2.95795    -0.04304   0.60307   
 C4787    C    2.90490    -0.03307   0.64063   
 H4788    H    2.92485    -0.03351   0.67851   
 O4789    O    2.70795    0.02177    -0.06105  
 C4790    C    2.65490    -0.00529   1.63680   
 H4791    H    2.67485    -0.00573   1.67469   
 O4792    O    2.45795    -0.04304   0.60307   
 C4793    C    2.40490    -0.03307   0.64063   
 H4794    H    2.42485    -0.03351   0.67851   
 O4795    O    2.46810    -0.04133   -0.13656  
 C4796    C    2.46710    -0.04530   0.04126   
 H4797    H    2.44510    -0.04464   0.01154   
 O4798    O    2.71810    -0.10615   0.52756   
 C4799    C    2.71710    -0.11011   0.70538   
 H4800    H    2.69510    -0.10945   0.67566   
 O4801    O    3.03190    -0.04133   -0.13656  
 C4802    C    3.03290    -0.04530   0.04126   
 H4803    H    3.05490    -0.04464   0.01154   
 O4804    O    2.78190    -0.01356   0.85962   
 C4805    C    2.78290    -0.01752   1.03744   
 H4806    H    2.80490    -0.01686   1.00772   
 O4807    O    2.53190    -0.04133   -0.13656  
 C4808    C    2.53290    -0.04530   0.04126   
 H4809    H    2.55490    -0.04464   0.01154   
 O4810    O    2.75000    -0.10346   0.12119   
 C4811    C    2.75000    -0.09968   -0.05729  
 H4812    H    2.75000    -0.10442   -0.04219  
 O4813    O    2.50000    -0.07569   1.11736   
 C4814    C    2.50000    -0.07190   0.93888   
 H4815    H    2.50000    -0.07664   0.95399   
 O4816    O    2.75000    0.00094    0.49562   
 C4817    C    2.75000    0.00510    0.31846   
 H4818    H    2.75000    0.00851    0.36279   
 O4819    O    3.00000    -0.06387   1.15973   
 C4820    C    3.00000    -0.05972   0.98258   
 H4821    H    3.00000    -0.05631   1.02691   
 O4822    O    2.50000    -0.06387   1.15973   
 C4823    C    2.50000    -0.05972   0.98258   
 H4824    H    2.50000    -0.05631   1.02691   
 O4825    O    2.57395    -0.04601   -0.30411  
 C4826    C    2.62800    -0.05587   -0.33768  
 H4827    H    2.63005    -0.05299   -0.28791  
 O4828    O    2.32395    -0.01823   0.69206   
 C4829    C    2.37800    -0.02809   0.65849   
 H4830    H    2.38005    -0.02521   0.70827   
 O4831    O    2.79205    -0.02177   0.56495   
 C4832    C    2.84510    -0.03174   0.52739   
 H4833    H    2.82515    -0.03131   0.48951   
 O4834    O    2.54205    0.00601    1.56113   
 C4835    C    2.59510    -0.00397   1.52357   
 H4836    H    2.57515    -0.00353   1.48568   
 O4837    O    2.29205    -0.02177   0.56495   
 C4838    C    2.34510    -0.03174   0.52739   
 H4839    H    2.32515    -0.03131   0.48951   
 O4840    O    2.92605    -0.06747   1.41203   
 C4841    C    2.87200    -0.05768   1.44892   
 H4842    H    2.86995    -0.06219   1.47220   
 O4843    O    2.67605    -0.00265   0.74791   
 C4844    C    2.62200    0.00713    0.78481   
 H4845    H    2.61995    0.00262    0.80808   
 O4846    O    2.67605    -0.09525   0.41586   
 C4847    C    2.62200    -0.08546   0.45275   
 H4848    H    2.61995    -0.08997   0.47603   
 O4849    O    2.70795    -0.08698   0.33112   
 C4850    C    2.65490    -0.07693   0.36535   
 H4851    H    2.67485    -0.07574   0.33019   
 O4852    O    2.45795    -0.02216   -0.33300  
 C4853    C    2.40490    -0.01211   -0.29877  
 H4854    H    2.42485    -0.01092   -0.33393  
 O4855    O    2.45795    -0.04955   -0.43122  
 C4856    C    2.40490    -0.05952   -0.46878  
 H4857    H    2.42485    -0.05909   -0.50667  
 O4858    O    2.70795    -0.02177   0.56495   
 C4859    C    2.65490    -0.03174   0.52739   
 H4860    H    2.67485    -0.03131   0.48951   
 O4861    O    2.67605    -0.11082   0.36000   
 C4862    C    2.62200    -0.12068   0.32643   
 H4863    H    2.61995    -0.11780   0.37621   
 O4864    O    2.92605    -0.04601   -0.30411  
 C4865    C    2.87200    -0.05587   -0.33768  
 H4866    H    2.86995    -0.05299   -0.28791  
 O4867    O    2.67605    -0.01823   0.69206   
 C4868    C    2.62200    -0.02809   0.65849   
 H4869    H    2.61995    -0.02521   0.70827   
 O4870    O    2.32395    -0.09525   0.41586   
 C4871    C    2.37800    -0.08546   0.45275   
 H4872    H    2.38005    -0.08997   0.47603   
 O4873    O    2.57395    -0.03043   -0.24826  
 C4874    C    2.62800    -0.02064   -0.21137  
 H4875    H    2.63005    -0.02515   -0.18809  
 O4876    O    2.54205    -0.11475   -0.66506  
 C4877    C    2.59510    -0.10471   -0.63083  
 H4878    H    2.57515    -0.10351   -0.66599  
 O4879    O    2.29205    -0.08698   0.33112   
 C4880    C    2.34510    -0.07693   0.36535   
 H4881    H    2.32515    -0.07574   0.33019   
 O4882    O    2.79205    -0.08698   0.33112   
 C4883    C    2.84510    -0.07693   0.36535   
 H4884    H    2.82515    -0.07574   0.33019   
 O4885    O    2.96810    -0.04133   -0.13656  
 C4886    C    2.96710    -0.04530   0.04126   
 H4887    H    2.94510    -0.04464   0.01154   
 O4888    O    2.71810    -0.01356   0.85962   
 C4889    C    2.71710    -0.01752   1.03744   
 H4890    H    2.69510    -0.01686   1.00772   
 O4891    O    2.78190    -0.10615   0.52756   
 C4892    C    2.78290    -0.11011   0.70538   
 H4893    H    2.80490    -0.10945   0.67566   
 O4894    O    2.75000    -0.09165   0.16356   
 C4895    C    2.75000    -0.08750   -0.01359  
 H4896    H    2.75000    -0.08409   0.03073   
 O4897    O    2.75000    -0.01087   0.45325   
 C4898    C    2.75000    -0.00709   0.27476   
 H4899    H    2.75000    -0.01183   0.28987   
 O4900    O    3.00000    -0.07569   1.11736   
 C4901    C    3.00000    -0.07190   0.93888   
 H4902    H    3.00000    -0.07664   0.95399   
 O4903    O    2.57395    -0.12302   -0.58032  
 C4904    C    2.62800    -0.11324   -0.54343  
 H4905    H    2.63005    -0.11775   -0.52015  
 O4906    O    2.82395    -0.09525   0.41586   
 C4907    C    2.87800    -0.08546   0.45275   
 H4908    H    2.88005    -0.08997   0.47603   
 O4909    O    2.54205    -0.02216   -0.33300  
 C4910    C    2.59510    -0.01211   -0.29877  
 H4911    H    2.57515    -0.01092   -0.33393  
 O4912    O    2.42605    -0.04601   -0.30411  
 C4913    C    2.37200    -0.05587   -0.33768  
 H4914    H    2.36995    -0.05299   -0.28791  
 O4915    O    2.70795    -0.11436   0.23289   
 C4916    C    2.65490    -0.12434   0.19534   
 H4917    H    2.67485    -0.12390   0.15745   
 O4918    O    2.95795    -0.04955   -0.43122  
 C4919    C    2.90490    -0.05952   -0.46878  
 H4920    H    2.92485    -0.05909   -0.50667  
 O4921    O    2.95795    -0.05920   1.32729   
 C4922    C    2.90490    -0.04915   1.36153   
 H4923    H    2.92485    -0.04796   1.32636   
 O4924    O    2.70795    0.00562    0.66317   
 C4925    C    2.65490    0.01566    0.69741   
 H4926    H    2.67485    0.01686    0.66224   
 O4927    O    2.42605    -0.03043   -0.24826  
 C4928    C    2.37200    -0.02064   -0.21137  
 H4929    H    2.36995    -0.02515   -0.18809  
 O4930    O    2.82395    -0.01823   0.69206   
 C4931    C    2.87800    -0.02809   0.65849   
 H4932    H    2.88005    -0.02521   0.70827   
 O4933    O    2.57395    0.00955    1.68824   
 C4934    C    2.62800    -0.00031   1.65467   
 H4935    H    2.63005    0.00257    1.70444   
 O4936    O    2.54205    -0.04955   -0.43122  
 C4937    C    2.59510    -0.05952   -0.46878  
 H4938    H    2.57515    -0.05909   -0.50667  
 O4939    O    2.53190    -0.14385   -0.02366  
 C4940    C    3.03290    -0.04729   0.13058   
 H4941    H    3.05490    -0.04796   0.16030   
 O4942    O    2.78190    -0.02348   1.30458   
 C4943    C    2.78290    -0.01951   1.12676   
 H4944    H    2.80490    -0.02018   1.15648   
 O4945    O    2.71810    -0.11607   0.97252   
 C4946    C    2.71710    -0.11211   0.79470   
 H4947    H    2.69510    -0.11277   0.82442   
 O4948    O    2.75000    0.01087    0.05066   
 C4949    C    2.75000    0.00709    0.22914   
 H4950    H    2.75000    0.01183    0.21403   
 O4951    O    2.50000    -0.14654   0.38272   
 C4952    C    3.00000    -0.05773   0.89326   
 H4953    H    3.00000    -0.05299   0.87815   
 O4954    O    2.75000    -0.09354   -0.32377  
 C4955    C    2.75000    -0.09769   -0.14662  
 H4956    H    2.75000    -0.10110   -0.19095  
 O4957    O    2.92605    -0.04659   0.47596   
 C4958    C    2.87200    -0.03673   0.50953   
 H4959    H    2.86995    -0.03961   0.45975   
 O4960    O    2.67605    -0.01881   1.47213   
 C4961    C    2.62200    -0.00895   1.50571   
 H4962    H    2.61995    -0.01183   1.45593   
 O4963    O    2.70795    -0.07082   -0.39310  
 C4964    C    2.65490    -0.06085   -0.35555  
 H4965    H    2.67485    -0.06128   -0.31766  
 O4966    O    2.32395    0.00265    -0.24401  
 C4967    C    2.37800    -0.00713   -0.28090  
 H4968    H    2.38005    -0.00262   -0.30418  
 O4969    O    2.79205    -0.00562   -0.15927  
 C4970    C    2.84510    -0.05270   1.46679   
 H4971    H    2.82515    -0.05389   1.50195   
 O4972    O    2.54205    0.02216    0.83691   
 C4973    C    2.59510    0.01211    0.80267   
 H4974    H    2.57515    0.01092    0.83784   
 O4975    O    2.54205    -0.13564   0.27101   
 C4976    C    2.59510    -0.12566   0.30857   
 H4977    H    2.57515    -0.12610   0.34646   
 O4978    O    2.79205    -0.07082   -0.39310  
 C4979    C    2.84510    -0.06085   -0.35555  
 H4980    H    2.82515    -0.06128   -0.31766  
 O4981    O    2.32395    -0.07436   -0.52022  
 C4982    C    2.37800    -0.06450   -0.48665  
 H4983    H    2.38005    -0.06738   -0.53642  
 O4984    O    2.67605    -0.12698   1.08422   
 C4985    C    2.62200    -0.09973   -0.61296  
 H4986    H    2.61995    -0.09522   -0.63624  
 O4987    O    2.92605    -0.06216   0.42011   
 C4988    C    2.87200    -0.07195   0.38322   
 H4989    H    2.86995    -0.06744   0.35994   
 O4990    O    2.70795    -0.00562   -0.15927  
 C4991    C    2.65490    -0.01566   -0.19350  
 H4992    H    2.67485    -0.01686   -0.15834  
 C4993    C    2.50000    -0.05042   0.27071   
 C4994    C    2.50000    -0.04829   0.17525   
 C4995    C    2.75000    -0.11523   0.93483   
 C4996    C    2.75000    -0.11310   0.83936   
 C4997    C    3.00000    -0.05042   0.27071   
 C4998    C    3.00000    -0.04829   0.17525   
 C4999    C    2.75000    -0.02264   1.26689   
 C5000    C    2.75000    -0.02051   1.17142   
 C5001    C    2.75000    0.00412    0.06716   
 C5002    C    2.75000    0.00199    0.16263   
 C5003    C    3.00000    -0.06069   0.73128   
 C5004    C    3.00000    -0.06282   0.82675   
 C5005    C    2.50000    -0.06069   0.73128   
 C5006    C    2.50000    -0.06282   0.82675   
 C5007    C    2.75000    -0.08847   -0.26490  
 C5008    C    2.75000    -0.09060   -0.16943  
 C5009    C    2.43065    -0.06840   0.45494   
 C5010    C    2.40190    -0.07372   0.43585   
 C5011    C    2.68065    -0.00358   -0.20918  
 C5012    C    2.65190    -0.00891   -0.22827  
 C5013    C    2.68065    -0.09618   -0.54124  
 C5014    C    2.65190    -0.10150   -0.56033  
 C5015    C    2.93065    -0.06840   0.45494   
 C5016    C    2.90190    -0.07372   0.43585   
 C5017    C    2.56935    -0.13531   0.21499   
 C5018    C    2.59810    -0.12998   0.23409   
 C5019    C    2.81935    -0.07049   -0.44912  
 C5020    C    2.84810    -0.06517   -0.43003  
 C5021    C    2.56935    -0.04271   0.54705   
 C5022    C    2.59810    -0.03739   0.56615   
 C5023    C    2.31935    -0.07049   -0.44912  
 C5024    C    2.34810    -0.06517   -0.43003  
 C5025    C    2.56935    -0.06840   0.45494   
 C5026    C    2.59810    -0.07372   0.43585   
 C5027    C    2.31935    -0.00358   -0.20918  
 C5028    C    2.34810    -0.00891   -0.22827  
 C5029    C    2.81935    -0.04062   1.45112   
 C5030    C    2.84810    -0.04594   1.43202   
 C5031    C    2.56935    0.02419    0.78700   
 C5032    C    2.59810    0.01887    0.76790   
 C5033    C    2.68065    -0.07049   -0.44912  
 C5034    C    2.65190    -0.06517   -0.43003  
 C5035    C    2.43065    -0.04271   0.54705   
 C5036    C    2.40190    -0.03739   0.56615   
 C5037    C    2.93065    -0.04271   0.54705   
 C5038    C    2.90190    -0.03739   0.56615   
 C5039    C    2.68065    -0.01494   1.54323   
 C5040    C    2.65190    -0.00961   1.56232   
 C5041    C    2.50000    -0.04217   -0.09887  
 C5042    C    2.50000    -0.04430   -0.00340  
 C5043    C    2.75000    -0.10699   0.56525   
 C5044    C    2.75000    -0.10912   0.66072   
 C5045    C    3.00000    -0.04217   -0.09887  
 C5046    C    3.00000    -0.04430   -0.00340  
 C5047    C    2.75000    -0.01440   0.89731   
 C5048    C    2.75000    -0.01653   0.99277   
 C5049    C    2.75000    -0.09671   0.10468   
 C5050    C    2.75000    -0.09459   0.00922   
 C5051    C    2.50000    -0.06894   1.10086   
 C5052    C    2.50000    -0.06681   1.00539   
 C5053    C    2.75000    -0.00412   0.43674   
 C5054    C    2.75000    -0.00199   0.34128   
 C5055    C    3.00000    -0.06894   1.10086   
 C5056    C    3.00000    -0.06681   1.00539   
 C5057    C    2.56935    -0.04988   -0.37521  
 C5058    C    2.59810    -0.05520   -0.39430  
 C5059    C    2.31935    -0.02210   0.62097   
 C5060    C    2.34810    -0.02743   0.60188   
 C5061    C    2.81935    -0.02210   0.62097   
 C5062    C    2.84810    -0.02743   0.60188   
 C5063    C    2.56935    0.00568    1.61714   
 C5064    C    2.59810    0.00035    1.59805   
 C5065    C    2.93065    -0.06123   1.37720   
 C5066    C    2.90190    -0.05591   1.39629   
 C5067    C    2.68065    0.00358    0.71308   
 C5068    C    2.65190    0.00891    0.73218   
 C5069    C    2.68065    -0.08901   0.38102   
 C5070    C    2.65190    -0.08369   0.40012   
 C5071    C    2.43065    -0.02419   -0.28309  
 C5072    C    2.40190    -0.01887   -0.26400  
 C5073    C    2.43065    -0.04988   -0.37521  
 C5074    C    2.40190    -0.05520   -0.39430  
 C5075    C    2.68065    -0.02210   0.62097   
 C5076    C    2.65190    -0.02743   0.60188   
 C5077    C    2.68065    -0.11469   0.28891   
 C5078    C    2.65190    -0.12002   0.26982   
 C5079    C    2.93065    -0.04988   -0.37521  
 C5080    C    2.90190    -0.05520   -0.39430  
 C5081    C    2.31935    -0.08901   0.38102   
 C5082    C    2.34810    -0.08369   0.40012   
 C5083    C    2.56935    -0.02419   -0.28309  
 C5084    C    2.59810    -0.01887   -0.26400  
 C5085    C    2.56935    -0.11679   -0.61515  
 C5086    C    2.59810    -0.11146   -0.59606  
 C5087    C    2.81935    -0.08901   0.38102   
 C5088    C    2.84810    -0.08369   0.40012   
 Zn5089   Zn   0.04340    0.44605    0.42894   
 Zn5090   Zn   0.29340    0.38124    1.09306   
 Zn5091   Zn   0.45660    0.44605    0.42894   
 Zn5092   Zn   0.20660    0.47383    1.42511   
 Zn5093   Zn   -0.04340   0.44605    0.42894   
 Zn5094   Zn   0.25000    0.49961    -0.11989  
 Zn5095   Zn   0.50000    0.43480    0.54423   
 Zn5096   Zn   0.00000    0.43480    0.54423   
 Zn5097   Zn   0.25000    0.42310    -0.39430  
 Zn5098   Zn   0.00000    0.45087    0.60188   
 Zn5099   Zn   0.25000    0.40702    -0.45195  
 Zn5100   Zn   0.04340    0.35346    0.09688   
 Zn5101   Zn   0.25000    0.51569    -0.06224  
 Zn5102   Zn   0.29340    0.47383    1.42511   
 Zn5103   Zn   0.20660    0.38124    1.09306   
 Zn5104   Zn   0.00000    0.35828    0.26982   
 Zn5105   Zn   -0.04340   0.46136    -0.25709  
 Zn5106   Zn   0.04340    0.36876    -0.58915  
 Zn5107   Zn   0.29340    0.48913    0.73908   
 Zn5108   Zn   0.04340    0.46136    -0.25709  
 Zn5109   Zn   0.25000    0.39172    0.23409   
 Zn5110   Zn   0.25000    0.50039    0.62379   
 Zn5111   Zn   0.00000    0.47261    -0.37238  
 Zn5112   Zn   0.29340    0.39654    0.40702   
 Zn5113   Zn   0.25000    0.48431    0.56615   
 Zn5114   Zn   0.50000    0.45653    -0.43003  
 Zn5115   Zn   0.45660    0.46136    -0.25709  
 Zn5116   Zn   0.20660    0.48913    0.73908   
 Zn5117   Zn   0.20660    0.39654    0.40702   
 Zn5118   Zn   0.25000    0.40779    0.29173   
 Zn5119   Zn   0.00000    0.45653    -0.43003  
 Zn5120   Zn   0.00000    0.38001    -0.70444  
 O5121    O    0.00000    0.44444    0.50100   
 O5122    O    0.50000    0.44444    0.50100   
 O5123    O    0.25000    0.47222    1.49717   
 O5124    O    0.25000    0.41667    -0.49518  
 O5125    O    0.00000    0.46296    -0.32915  
 O5126    O    0.00000    0.37037    -0.66121  
 O5127    O    0.25000    0.49074    0.66703   
 O5128    O    0.25000    0.39815    0.33497   
 O5129    O    0.03190    0.44874    0.30840   
 C5130    C    0.03290    0.45271    0.13058   
 H5131    H    0.05490    0.45204    0.16030   
 O5132    O    0.28190    0.38393    0.97252   
 C5133    C    0.28290    0.38789    0.79470   
 H5134    H    0.30490    0.38723    0.82442   
 O5135    O    0.46810    0.44874    0.30840   
 C5136    C    0.46710    0.45271    0.13058   
 H5137    H    0.44510    0.45204    0.16030   
 O5138    O    0.21810    0.47652    1.30458   
 C5139    C    0.21710    0.48049    1.12676   
 H5140    H    0.19510    0.47982    1.15648   
 O5141    O    -0.03190   0.44874    0.30840   
 C5142    C    -0.03290   0.45271    0.13058   
 H5143    H    -0.05490   0.45204    0.16030   
 O5144    O    0.25000    0.49906    0.00829   
 C5145    C    0.25000    0.49490    0.18544   
 H5146    H    0.25000    0.49149    0.14111   
 O5147    O    0.50000    0.43424    0.67240   
 C5148    C    0.50000    0.43009    0.84956   
 H5149    H    0.50000    0.42668    0.80523   
 O5150    O    0.00000    0.43424    0.67240   
 C5151    C    0.00000    0.43009    0.84956   
 H5152    H    0.00000    0.42668    0.80523   
 O5153    O    0.25000    0.41828    -0.28140  
 C5154    C    0.25000    0.41450    -0.10292  
 H5155    H    0.25000    0.41923    -0.11803  
 O5156    O    0.00000    0.44606    0.71478   
 C5157    C    0.00000    0.44227    0.89326   
 H5158    H    0.00000    0.44701    0.87815   
 O5159    O    -0.07395   0.43784    0.42011   
 C5160    C    -0.12800   0.42805    0.38322   
 H5161    H    -0.13005   0.43256    0.35994   
 O5162    O    0.17605    0.50265    -0.24401  
 C5163    C    0.12200    0.49287    -0.28090  
 H5164    H    0.11995    0.49738    -0.30418  
 O5165    O    0.20795    0.40179    -0.49133  
 C5166    C    0.15490    0.39174    -0.52556  
 H5167    H    0.17485    0.39055    -0.49040  
 O5168    O    -0.04205   0.42957    0.50485   
 C5169    C    -0.09510   0.41952    0.47061   
 H5170    H    -0.07515   0.41833    0.50578   
 O5171    O    0.45795    0.42957    0.50485   
 C5172    C    0.40490    0.41952    0.47061   
 H5173    H    0.42485    0.41833    0.50578   
 O5174    O    0.07395    0.36082    0.14390   
 C5175    C    0.12800    0.37068    0.17747   
 H5176    H    0.13005    0.36780    0.12770   
 O5177    O    0.32395    0.38860    1.14008   
 C5178    C    0.37800    0.43550    -0.48665  
 H5179    H    0.38005    0.43262    -0.53642  
 O5180    O    0.07395    0.45341    0.47596   
 C5181    C    0.12800    0.46327    0.50953   
 H5182    H    0.13005    0.46039    0.45975   
 O5183    O    -0.20795   0.42918    -0.39310  
 C5184    C    -0.15490   0.43915    -0.35555  
 H5185    H    -0.17485   0.43872    -0.31766  
 O5186    O    0.04205    0.45696    0.60307   
 C5187    C    0.09510    0.46693    0.64063   
 H5188    H    0.07515    0.46649    0.67851   
 O5189    O    0.04205    0.42957    0.50485   
 C5190    C    0.09510    0.41952    0.47061   
 H5191    H    0.07515    0.41833    0.50578   
 O5192    O    -0.20795   0.49438    -0.15927  
 C5193    C    -0.15490   0.48434    -0.19350  
 H5194    H    -0.17485   0.48314    -0.15834  
 O5195    O    0.32395    0.46562    1.41628   
 C5196    C    0.37800    0.45583    1.37939   
 H5197    H    0.38005    0.46034    1.35611   
 O5198    O    0.07395    0.53043    0.75217   
 C5199    C    0.12800    0.52064    0.71527   
 H5200    H    0.13005    0.52515    0.69200   
 O5201    O    0.07395    0.43784    0.42011   
 C5202    C    0.12800    0.42805    0.38322   
 H5203    H    0.13005    0.43256    0.35994   
 O5204    O    0.17605    0.42564    -0.52022  
 C5205    C    0.12200    0.43550    -0.48665  
 H5206    H    0.11995    0.43262    -0.53642  
 O5207    O    -0.07395   0.45341    0.47596   
 C5208    C    -0.12800   0.46327    0.50953   
 H5209    H    -0.13005   0.46039    0.45975   
 O5210    O    0.45795    0.45696    0.60307   
 C5211    C    0.40490    0.46693    0.64063   
 H5212    H    0.42485    0.46649    0.67851   
 O5213    O    0.20795    0.52177    -0.06105  
 C5214    C    0.15490    0.49471    1.63680   
 H5215    H    0.17485    0.49427    1.67469   
 O5216    O    -0.04205   0.45696    0.60307   
 C5217    C    -0.09510   0.46693    0.64063   
 H5218    H    -0.07515   0.46649    0.67851   
 O5219    O    -0.03190   0.45867    -0.13656  
 C5220    C    -0.03290   0.45470    0.04126   
 H5221    H    -0.05490   0.45536    0.01154   
 O5222    O    0.21810    0.39385    0.52756   
 C5223    C    0.21710    0.38989    0.70538   
 H5224    H    0.19510    0.39055    0.67566   
 O5225    O    0.53190    0.45867    -0.13656  
 C5226    C    0.53290    0.45470    0.04126   
 H5227    H    0.55490    0.45536    0.01154   
 O5228    O    0.28190    0.48644    0.85962   
 C5229    C    0.28290    0.48248    1.03744   
 H5230    H    0.30490    0.48314    1.00772   
 O5231    O    0.03190    0.45867    -0.13656  
 C5232    C    0.03290    0.45470    0.04126   
 H5233    H    0.05490    0.45536    0.01154   
 O5234    O    0.25000    0.39654    0.12119   
 C5235    C    0.25000    0.40032    -0.05729  
 H5236    H    0.25000    0.39558    -0.04219  
 O5237    O    0.00000    0.42431    1.11736   
 C5238    C    0.00000    0.42810    0.93888   
 H5239    H    0.00000    0.42336    0.95399   
 O5240    O    0.25000    0.50094    0.49562   
 C5241    C    0.25000    0.50510    0.31846   
 H5242    H    0.25000    0.50851    0.36279   
 O5243    O    0.50000    0.43613    1.15973   
 C5244    C    0.50000    0.44028    0.98258   
 H5245    H    0.50000    0.44369    1.02691   
 O5246    O    0.00000    0.43613    1.15973   
 C5247    C    0.00000    0.44028    0.98258   
 H5248    H    0.00000    0.44369    1.02691   
 O5249    O    0.07395    0.45399    -0.30411  
 C5250    C    0.12800    0.44413    -0.33768  
 H5251    H    0.13005    0.44701    -0.28791  
 O5252    O    -0.17605   0.48177    0.69206   
 C5253    C    -0.12200   0.47191    0.65849   
 H5254    H    -0.11995   0.47479    0.70827   
 O5255    O    0.29205    0.47823    0.56495   
 C5256    C    0.34510    0.46826    0.52739   
 H5257    H    0.32515    0.46869    0.48951   
 O5258    O    0.04205    0.50601    1.56113   
 C5259    C    0.09510    0.49603    1.52357   
 H5260    H    0.07515    0.49647    1.48568   
 O5261    O    -0.20795   0.47823    0.56495   
 C5262    C    -0.15490   0.46826    0.52739   
 H5263    H    -0.17485   0.46869    0.48951   
 O5264    O    0.42605    0.43253    1.41203   
 C5265    C    0.37200    0.44232    1.44892   
 H5266    H    0.36995    0.43781    1.47220   
 O5267    O    0.17605    0.49735    0.74791   
 C5268    C    0.12200    0.50713    0.78481   
 H5269    H    0.11995    0.50262    0.80808   
 O5270    O    0.17605    0.40475    0.41586   
 C5271    C    0.12200    0.41454    0.45275   
 H5272    H    0.11995    0.41003    0.47603   
 O5273    O    0.20795    0.41302    0.33112   
 C5274    C    0.15490    0.42307    0.36535   
 H5275    H    0.17485    0.42426    0.33019   
 O5276    O    -0.04205   0.47784    -0.33300  
 C5277    C    -0.09510   0.48789    -0.29877  
 H5278    H    -0.07515   0.48908    -0.33393  
 O5279    O    -0.04205   0.45045    -0.43122  
 C5280    C    -0.09510   0.44048    -0.46878  
 H5281    H    -0.07515   0.44091    -0.50667  
 O5282    O    0.20795    0.47823    0.56495   
 C5283    C    0.15490    0.46826    0.52739   
 H5284    H    0.17485    0.46869    0.48951   
 O5285    O    0.17605    0.38918    0.36000   
 C5286    C    0.12200    0.37932    0.32643   
 H5287    H    0.11995    0.38220    0.37621   
 O5288    O    0.42605    0.45399    -0.30411  
 C5289    C    0.37200    0.44413    -0.33768  
 H5290    H    0.36995    0.44701    -0.28791  
 O5291    O    0.17605    0.48177    0.69206   
 C5292    C    0.12200    0.47191    0.65849   
 H5293    H    0.11995    0.47479    0.70827   
 O5294    O    -0.17605   0.40475    0.41586   
 C5295    C    -0.12200   0.41454    0.45275   
 H5296    H    -0.11995   0.41003    0.47603   
 O5297    O    0.07395    0.46957    -0.24826  
 C5298    C    0.12800    0.47936    -0.21137  
 H5299    H    0.13005    0.47485    -0.18809  
 O5300    O    0.04205    0.38525    -0.66506  
 C5301    C    0.09510    0.39529    -0.63083  
 H5302    H    0.07515    0.39649    -0.66599  
 O5303    O    -0.20795   0.41302    0.33112   
 C5304    C    -0.15490   0.42307    0.36535   
 H5305    H    -0.17485   0.42426    0.33019   
 O5306    O    0.29205    0.41302    0.33112   
 C5307    C    0.34510    0.42307    0.36535   
 H5308    H    0.32515    0.42426    0.33019   
 O5309    O    0.46810    0.45867    -0.13656  
 C5310    C    0.46710    0.45470    0.04126   
 H5311    H    0.44510    0.45536    0.01154   
 O5312    O    0.21810    0.48644    0.85962   
 C5313    C    0.21710    0.48248    1.03744   
 H5314    H    0.19510    0.48314    1.00772   
 O5315    O    0.28190    0.39385    0.52756   
 C5316    C    0.28290    0.38989    0.70538   
 H5317    H    0.30490    0.39055    0.67566   
 O5318    O    0.25000    0.40835    0.16356   
 C5319    C    0.25000    0.41250    -0.01359  
 H5320    H    0.25000    0.41591    0.03073   
 O5321    O    0.25000    0.48913    0.45325   
 C5322    C    0.25000    0.49291    0.27476   
 H5323    H    0.25000    0.48817    0.28987   
 O5324    O    0.50000    0.42431    1.11736   
 C5325    C    0.50000    0.42810    0.93888   
 H5326    H    0.50000    0.42336    0.95399   
 O5327    O    0.07395    0.37698    -0.58032  
 C5328    C    0.12800    0.38676    -0.54343  
 H5329    H    0.13005    0.38225    -0.52015  
 O5330    O    0.32395    0.40475    0.41586   
 C5331    C    0.37800    0.41454    0.45275   
 H5332    H    0.38005    0.41003    0.47603   
 O5333    O    0.04205    0.47784    -0.33300  
 C5334    C    0.09510    0.48789    -0.29877  
 H5335    H    0.07515    0.48908    -0.33393  
 O5336    O    -0.07395   0.45399    -0.30411  
 C5337    C    -0.12800   0.44413    -0.33768  
 H5338    H    -0.13005   0.44701    -0.28791  
 O5339    O    0.20795    0.38564    0.23289   
 C5340    C    0.15490    0.37566    0.19534   
 H5341    H    0.17485    0.37610    0.15745   
 O5342    O    0.45795    0.45045    -0.43122  
 C5343    C    0.40490    0.44048    -0.46878  
 H5344    H    0.42485    0.44091    -0.50667  
 O5345    O    0.45795    0.44080    1.32729   
 C5346    C    0.40490    0.45085    1.36153   
 H5347    H    0.42485    0.45204    1.32636   
 O5348    O    0.20795    0.50562    0.66317   
 C5349    C    0.15490    0.51566    0.69741   
 H5350    H    0.17485    0.51686    0.66224   
 O5351    O    -0.07395   0.46957    -0.24826  
 C5352    C    -0.12800   0.47936    -0.21137  
 H5353    H    -0.13005   0.47485    -0.18809  
 O5354    O    0.32395    0.48177    0.69206   
 C5355    C    0.37800    0.47191    0.65849   
 H5356    H    0.38005    0.47479    0.70827   
 O5357    O    0.07395    0.50955    1.68824   
 C5358    C    0.12800    0.49969    1.65467   
 H5359    H    0.13005    0.50257    1.70444   
 O5360    O    0.04205    0.45045    -0.43122  
 C5361    C    0.09510    0.44048    -0.46878  
 H5362    H    0.07515    0.44091    -0.50667  
 O5363    O    0.03190    0.35615    -0.02366  
 C5364    C    0.53290    0.45271    0.13058   
 H5365    H    0.55490    0.45204    0.16030   
 O5366    O    0.28190    0.47652    1.30458   
 C5367    C    0.28290    0.48049    1.12676   
 H5368    H    0.30490    0.47982    1.15648   
 O5369    O    0.21810    0.38393    0.97252   
 C5370    C    0.21710    0.38789    0.79470   
 H5371    H    0.19510    0.38723    0.82442   
 O5372    O    0.25000    0.51087    0.05066   
 C5373    C    0.25000    0.50709    0.22914   
 H5374    H    0.25000    0.51183    0.21403   
 O5375    O    0.00000    0.35346    0.38272   
 C5376    C    0.50000    0.44227    0.89326   
 H5377    H    0.50000    0.44701    0.87815   
 O5378    O    0.25000    0.40646    -0.32377  
 C5379    C    0.25000    0.40231    -0.14662  
 H5380    H    0.25000    0.39890    -0.19095  
 O5381    O    0.42605    0.45341    0.47596   
 C5382    C    0.37200    0.46327    0.50953   
 H5383    H    0.36995    0.46039    0.45975   
 O5384    O    0.17605    0.48119    1.47213   
 C5385    C    0.12200    0.49105    1.50571   
 H5386    H    0.11995    0.48817    1.45593   
 O5387    O    0.20795    0.42918    -0.39310  
 C5388    C    0.15490    0.43915    -0.35555  
 H5389    H    0.17485    0.43872    -0.31766  
 O5390    O    -0.17605   0.50265    -0.24401  
 C5391    C    -0.12200   0.49287    -0.28090  
 H5392    H    -0.11995   0.49738    -0.30418  
 O5393    O    0.29205    0.49438    -0.15927  
 C5394    C    0.34510    0.44730    1.46679   
 H5395    H    0.32515    0.44611    1.50195   
 O5396    O    0.04205    0.52216    0.83691   
 C5397    C    0.09510    0.51211    0.80267   
 H5398    H    0.07515    0.51092    0.83784   
 O5399    O    0.04205    0.36436    0.27101   
 C5400    C    0.09510    0.37434    0.30857   
 H5401    H    0.07515    0.37390    0.34646   
 O5402    O    0.29205    0.42918    -0.39310  
 C5403    C    0.34510    0.43915    -0.35555  
 H5404    H    0.32515    0.43872    -0.31766  
 O5405    O    -0.17605   0.42564    -0.52022  
 C5406    C    -0.12200   0.43550    -0.48665  
 H5407    H    -0.11995   0.43262    -0.53642  
 O5408    O    0.17605    0.37302    1.08422   
 C5409    C    0.12200    0.40027    -0.61296  
 H5410    H    0.11995    0.40478    -0.63624  
 O5411    O    0.42605    0.43784    0.42011   
 C5412    C    0.37200    0.42805    0.38322   
 H5413    H    0.36995    0.43256    0.35994   
 O5414    O    0.20795    0.49438    -0.15927  
 C5415    C    0.15490    0.48434    -0.19350  
 H5416    H    0.17485    0.48314    -0.15834  
 C5417    C    0.00000    0.44958    0.27071   
 C5418    C    0.00000    0.45171    0.17525   
 C5419    C    0.25000    0.38477    0.93483   
 C5420    C    0.25000    0.38690    0.83936   
 C5421    C    0.50000    0.44958    0.27071   
 C5422    C    0.50000    0.45171    0.17525   
 C5423    C    0.25000    0.47736    1.26689   
 C5424    C    0.25000    0.47949    1.17142   
 C5425    C    0.25000    0.50412    0.06716   
 C5426    C    0.25000    0.50199    0.16263   
 C5427    C    0.50000    0.43931    0.73128   
 C5428    C    0.50000    0.43718    0.82675   
 C5429    C    0.00000    0.43931    0.73128   
 C5430    C    0.00000    0.43718    0.82675   
 C5431    C    0.25000    0.41153    -0.26490  
 C5432    C    0.25000    0.40940    -0.16943  
 C5433    C    -0.06935   0.43160    0.45494   
 C5434    C    -0.09810   0.42628    0.43585   
 C5435    C    0.18065    0.49642    -0.20918  
 C5436    C    0.15190    0.49109    -0.22827  
 C5437    C    0.18065    0.40382    -0.54124  
 C5438    C    0.15190    0.39850    -0.56033  
 C5439    C    0.43065    0.43160    0.45494   
 C5440    C    0.40190    0.42628    0.43585   
 C5441    C    0.06935    0.36469    0.21499   
 C5442    C    0.09810    0.37002    0.23409   
 C5443    C    0.31935    0.42951    -0.44912  
 C5444    C    0.34810    0.43483    -0.43003  
 C5445    C    0.06935    0.45729    0.54705   
 C5446    C    0.09810    0.46261    0.56615   
 C5447    C    -0.18065   0.42951    -0.44912  
 C5448    C    -0.15190   0.43483    -0.43003  
 C5449    C    0.06935    0.43160    0.45494   
 C5450    C    0.09810    0.42628    0.43585   
 C5451    C    -0.18065   0.49642    -0.20918  
 C5452    C    -0.15190   0.49109    -0.22827  
 C5453    C    0.31935    0.45938    1.45112   
 C5454    C    0.34810    0.45406    1.43202   
 C5455    C    0.06935    0.52419    0.78700   
 C5456    C    0.09810    0.51887    0.76790   
 C5457    C    0.18065    0.42951    -0.44912  
 C5458    C    0.15190    0.43483    -0.43003  
 C5459    C    -0.06935   0.45729    0.54705   
 C5460    C    -0.09810   0.46261    0.56615   
 C5461    C    0.43065    0.45729    0.54705   
 C5462    C    0.40190    0.46261    0.56615   
 C5463    C    0.18065    0.48506    1.54323   
 C5464    C    0.15190    0.49039    1.56232   
 C5465    C    0.00000    0.45783    -0.09887  
 C5466    C    0.00000    0.45570    -0.00340  
 C5467    C    0.25000    0.39301    0.56525   
 C5468    C    0.25000    0.39088    0.66072   
 C5469    C    0.50000    0.45783    -0.09887  
 C5470    C    0.50000    0.45570    -0.00340  
 C5471    C    0.25000    0.48560    0.89731   
 C5472    C    0.25000    0.48347    0.99277   
 C5473    C    0.25000    0.40329    0.10468   
 C5474    C    0.25000    0.40541    0.00922   
 C5475    C    0.00000    0.43106    1.10086   
 C5476    C    0.00000    0.43319    1.00539   
 C5477    C    0.25000    0.49588    0.43674   
 C5478    C    0.25000    0.49801    0.34128   
 C5479    C    0.50000    0.43106    1.10086   
 C5480    C    0.50000    0.43319    1.00539   
 C5481    C    0.06935    0.45012    -0.37521  
 C5482    C    0.09810    0.44480    -0.39430  
 C5483    C    -0.18065   0.47790    0.62097   
 C5484    C    -0.15190   0.47257    0.60188   
 C5485    C    0.31935    0.47790    0.62097   
 C5486    C    0.34810    0.47257    0.60188   
 C5487    C    0.06935    0.50568    1.61714   
 C5488    C    0.09810    0.50035    1.59805   
 C5489    C    0.43065    0.43877    1.37720   
 C5490    C    0.40190    0.44409    1.39629   
 C5491    C    0.18065    0.50358    0.71308   
 C5492    C    0.15190    0.50891    0.73218   
 C5493    C    0.18065    0.41099    0.38102   
 C5494    C    0.15190    0.41631    0.40012   
 C5495    C    -0.06935   0.47581    -0.28309  
 C5496    C    -0.09810   0.48113    -0.26400  
 C5497    C    -0.06935   0.45012    -0.37521  
 C5498    C    -0.09810   0.44480    -0.39430  
 C5499    C    0.18065    0.47790    0.62097   
 C5500    C    0.15190    0.47257    0.60188   
 C5501    C    0.18065    0.38531    0.28891   
 C5502    C    0.15190    0.37998    0.26982   
 C5503    C    0.43065    0.45012    -0.37521  
 C5504    C    0.40190    0.44480    -0.39430  
 C5505    C    -0.18065   0.41099    0.38102   
 C5506    C    -0.15190   0.41631    0.40012   
 C5507    C    0.06935    0.47581    -0.28309  
 C5508    C    0.09810    0.48113    -0.26400  
 C5509    C    0.06935    0.38321    -0.61515  
 C5510    C    0.09810    0.38854    -0.59606  
 C5511    C    0.31935    0.41099    0.38102   
 C5512    C    0.34810    0.41631    0.40012   
 Zn5513   Zn   3.54340    -0.05395   0.42894   
 Zn5514   Zn   3.79340    -0.11876   1.09306   
 Zn5515   Zn   3.95660    -0.05395   0.42894   
 Zn5516   Zn   3.70660    -0.02617   1.42511   
 Zn5517   Zn   3.45660    -0.05395   0.42894   
 Zn5518   Zn   3.75000    -0.00039   -0.11989  
 Zn5519   Zn   4.00000    -0.06520   0.54423   
 Zn5520   Zn   3.50000    -0.06520   0.54423   
 Zn5521   Zn   3.75000    -0.07690   -0.39430  
 Zn5522   Zn   3.50000    -0.04913   0.60188   
 Zn5523   Zn   3.75000    -0.09298   -0.45195  
 Zn5524   Zn   3.54340    -0.14654   0.09688   
 Zn5525   Zn   3.75000    0.01569    -0.06224  
 Zn5526   Zn   3.79340    -0.02617   1.42511   
 Zn5527   Zn   3.70660    -0.11876   1.09306   
 Zn5528   Zn   3.50000    -0.14172   0.26982   
 Zn5529   Zn   3.45660    -0.03864   -0.25709  
 Zn5530   Zn   3.54340    -0.13124   -0.58915  
 Zn5531   Zn   3.79340    -0.01087   0.73908   
 Zn5532   Zn   3.54340    -0.03864   -0.25709  
 Zn5533   Zn   3.75000    -0.10828   0.23409   
 Zn5534   Zn   3.75000    0.00039    0.62379   
 Zn5535   Zn   3.50000    -0.02739   -0.37238  
 Zn5536   Zn   3.79340    -0.10346   0.40702   
 Zn5537   Zn   3.75000    -0.01569   0.56615   
 Zn5538   Zn   4.00000    -0.04347   -0.43003  
 Zn5539   Zn   3.95660    -0.03864   -0.25709  
 Zn5540   Zn   3.70660    -0.01087   0.73908   
 Zn5541   Zn   3.70660    -0.10346   0.40702   
 Zn5542   Zn   3.75000    -0.09221   0.29173   
 Zn5543   Zn   3.50000    -0.04347   -0.43003  
 Zn5544   Zn   3.50000    -0.11999   -0.70444  
 O5545    O    3.50000    -0.05556   0.50100   
 O5546    O    4.00000    -0.05556   0.50100   
 O5547    O    3.75000    -0.02778   1.49717   
 O5548    O    3.75000    -0.08333   -0.49518  
 O5549    O    3.50000    -0.03704   -0.32915  
 O5550    O    3.50000    -0.12963   -0.66121  
 O5551    O    3.75000    -0.00926   0.66703   
 O5552    O    3.75000    -0.10185   0.33497   
 O5553    O    3.53190    -0.05126   0.30840   
 C5554    C    3.53290    -0.04729   0.13058   
 H5555    H    3.55490    -0.04796   0.16030   
 O5556    O    3.78190    -0.11607   0.97252   
 C5557    C    3.78290    -0.11211   0.79470   
 H5558    H    3.80490    -0.11277   0.82442   
 O5559    O    3.96810    -0.05126   0.30840   
 C5560    C    3.96710    -0.04729   0.13058   
 H5561    H    3.94510    -0.04796   0.16030   
 O5562    O    3.71810    -0.02348   1.30458   
 C5563    C    3.71710    -0.01951   1.12676   
 H5564    H    3.69510    -0.02018   1.15648   
 O5565    O    3.46810    -0.05126   0.30840   
 C5566    C    3.46710    -0.04729   0.13058   
 H5567    H    3.44510    -0.04796   0.16030   
 O5568    O    3.75000    -0.00094   0.00829   
 C5569    C    3.75000    -0.00510   0.18544   
 H5570    H    3.75000    -0.00851   0.14111   
 O5571    O    4.00000    -0.06576   0.67240   
 C5572    C    4.00000    -0.06991   0.84956   
 H5573    H    4.00000    -0.07332   0.80523   
 O5574    O    3.50000    -0.06576   0.67240   
 C5575    C    3.50000    -0.06991   0.84956   
 H5576    H    3.50000    -0.07332   0.80523   
 O5577    O    3.75000    -0.08172   -0.28140  
 C5578    C    3.75000    -0.08550   -0.10292  
 H5579    H    3.75000    -0.08077   -0.11803  
 O5580    O    3.50000    -0.05394   0.71478   
 C5581    C    3.50000    -0.05773   0.89326   
 H5582    H    3.50000    -0.05299   0.87815   
 O5583    O    3.42605    -0.06216   0.42011   
 C5584    C    3.37200    -0.07195   0.38322   
 H5585    H    3.36995    -0.06744   0.35994   
 O5586    O    3.67605    0.00265    -0.24401  
 C5587    C    3.62200    -0.00713   -0.28090  
 H5588    H    3.61995    -0.00262   -0.30418  
 O5589    O    3.70795    -0.09821   -0.49133  
 C5590    C    3.65490    -0.10826   -0.52556  
 H5591    H    3.67485    -0.10945   -0.49040  
 O5592    O    3.45795    -0.07043   0.50485   
 C5593    C    3.40490    -0.08048   0.47061   
 H5594    H    3.42485    -0.08167   0.50578   
 O5595    O    3.95795    -0.07043   0.50485   
 C5596    C    3.90490    -0.08048   0.47061   
 H5597    H    3.92485    -0.08167   0.50578   
 O5598    O    3.57395    -0.13918   0.14390   
 C5599    C    3.62800    -0.12932   0.17747   
 H5600    H    3.63005    -0.13220   0.12770   
 O5601    O    3.82395    -0.11140   1.14008   
 C5602    C    3.87800    -0.06450   -0.48665  
 H5603    H    3.88005    -0.06738   -0.53642  
 O5604    O    3.57395    -0.04659   0.47596   
 C5605    C    3.62800    -0.03673   0.50953   
 H5606    H    3.63005    -0.03961   0.45975   
 O5607    O    3.29205    -0.07082   -0.39310  
 C5608    C    3.34510    -0.06085   -0.35555  
 H5609    H    3.32515    -0.06128   -0.31766  
 O5610    O    3.54205    -0.04304   0.60307   
 C5611    C    3.59510    -0.03307   0.64063   
 H5612    H    3.57515    -0.03351   0.67851   
 O5613    O    3.54205    -0.07043   0.50485   
 C5614    C    3.59510    -0.08048   0.47061   
 H5615    H    3.57515    -0.08167   0.50578   
 O5616    O    3.29205    -0.00562   -0.15927  
 C5617    C    3.34510    -0.01566   -0.19350  
 H5618    H    3.32515    -0.01686   -0.15834  
 O5619    O    3.82395    -0.03438   1.41628   
 C5620    C    3.87800    -0.04417   1.37939   
 H5621    H    3.88005    -0.03966   1.35611   
 O5622    O    3.57395    0.03043    0.75217   
 C5623    C    3.62800    0.02064    0.71527   
 H5624    H    3.63005    0.02515    0.69200   
 O5625    O    3.57395    -0.06216   0.42011   
 C5626    C    3.62800    -0.07195   0.38322   
 H5627    H    3.63005    -0.06744   0.35994   
 O5628    O    3.67605    -0.07436   -0.52022  
 C5629    C    3.62200    -0.06450   -0.48665  
 H5630    H    3.61995    -0.06738   -0.53642  
 O5631    O    3.42605    -0.04659   0.47596   
 C5632    C    3.37200    -0.03673   0.50953   
 H5633    H    3.36995    -0.03961   0.45975   
 O5634    O    3.95795    -0.04304   0.60307   
 C5635    C    3.90490    -0.03307   0.64063   
 H5636    H    3.92485    -0.03351   0.67851   
 O5637    O    3.70795    0.02177    -0.06105  
 C5638    C    3.65490    -0.00529   1.63680   
 H5639    H    3.67485    -0.00573   1.67469   
 O5640    O    3.45795    -0.04304   0.60307   
 C5641    C    3.40490    -0.03307   0.64063   
 H5642    H    3.42485    -0.03351   0.67851   
 O5643    O    3.46810    -0.04133   -0.13656  
 C5644    C    3.46710    -0.04530   0.04126   
 H5645    H    3.44510    -0.04464   0.01154   
 O5646    O    3.71810    -0.10615   0.52756   
 C5647    C    3.71710    -0.11011   0.70538   
 H5648    H    3.69510    -0.10945   0.67566   
 O5649    O    4.03190    -0.04133   -0.13656  
 C5650    C    4.03290    -0.04530   0.04126   
 H5651    H    4.05490    -0.04464   0.01154   
 O5652    O    3.78190    -0.01356   0.85962   
 C5653    C    3.78290    -0.01752   1.03744   
 H5654    H    3.80490    -0.01686   1.00772   
 O5655    O    3.53190    -0.04133   -0.13656  
 C5656    C    3.53290    -0.04530   0.04126   
 H5657    H    3.55490    -0.04464   0.01154   
 O5658    O    3.75000    -0.10346   0.12119   
 C5659    C    3.75000    -0.09968   -0.05729  
 H5660    H    3.75000    -0.10442   -0.04219  
 O5661    O    3.50000    -0.07569   1.11736   
 C5662    C    3.50000    -0.07190   0.93888   
 H5663    H    3.50000    -0.07664   0.95399   
 O5664    O    3.75000    0.00094    0.49562   
 C5665    C    3.75000    0.00510    0.31846   
 H5666    H    3.75000    0.00851    0.36279   
 O5667    O    4.00000    -0.06387   1.15973   
 C5668    C    4.00000    -0.05972   0.98258   
 H5669    H    4.00000    -0.05631   1.02691   
 O5670    O    3.50000    -0.06387   1.15973   
 C5671    C    3.50000    -0.05972   0.98258   
 H5672    H    3.50000    -0.05631   1.02691   
 O5673    O    3.57395    -0.04601   -0.30411  
 C5674    C    3.62800    -0.05587   -0.33768  
 H5675    H    3.63005    -0.05299   -0.28791  
 O5676    O    3.32395    -0.01823   0.69206   
 C5677    C    3.37800    -0.02809   0.65849   
 H5678    H    3.38005    -0.02521   0.70827   
 O5679    O    3.79205    -0.02177   0.56495   
 C5680    C    3.84510    -0.03174   0.52739   
 H5681    H    3.82515    -0.03131   0.48951   
 O5682    O    3.54205    0.00601    1.56113   
 C5683    C    3.59510    -0.00397   1.52357   
 H5684    H    3.57515    -0.00353   1.48568   
 O5685    O    3.29205    -0.02177   0.56495   
 C5686    C    3.34510    -0.03174   0.52739   
 H5687    H    3.32515    -0.03131   0.48951   
 O5688    O    3.92605    -0.06747   1.41203   
 C5689    C    3.87200    -0.05768   1.44892   
 H5690    H    3.86995    -0.06219   1.47220   
 O5691    O    3.67605    -0.00265   0.74791   
 C5692    C    3.62200    0.00713    0.78481   
 H5693    H    3.61995    0.00262    0.80808   
 O5694    O    3.67605    -0.09525   0.41586   
 C5695    C    3.62200    -0.08546   0.45275   
 H5696    H    3.61995    -0.08997   0.47603   
 O5697    O    3.70795    -0.08698   0.33112   
 C5698    C    3.65490    -0.07693   0.36535   
 H5699    H    3.67485    -0.07574   0.33019   
 O5700    O    3.45795    -0.02216   -0.33300  
 C5701    C    3.40490    -0.01211   -0.29877  
 H5702    H    3.42485    -0.01092   -0.33393  
 O5703    O    3.45795    -0.04955   -0.43122  
 C5704    C    3.40490    -0.05952   -0.46878  
 H5705    H    3.42485    -0.05909   -0.50667  
 O5706    O    3.70795    -0.02177   0.56495   
 C5707    C    3.65490    -0.03174   0.52739   
 H5708    H    3.67485    -0.03131   0.48951   
 O5709    O    3.67605    -0.11082   0.36000   
 C5710    C    3.62200    -0.12068   0.32643   
 H5711    H    3.61995    -0.11780   0.37621   
 O5712    O    3.92605    -0.04601   -0.30411  
 C5713    C    3.87200    -0.05587   -0.33768  
 H5714    H    3.86995    -0.05299   -0.28791  
 O5715    O    3.67605    -0.01823   0.69206   
 C5716    C    3.62200    -0.02809   0.65849   
 H5717    H    3.61995    -0.02521   0.70827   
 O5718    O    3.32395    -0.09525   0.41586   
 C5719    C    3.37800    -0.08546   0.45275   
 H5720    H    3.38005    -0.08997   0.47603   
 O5721    O    3.57395    -0.03043   -0.24826  
 C5722    C    3.62800    -0.02064   -0.21137  
 H5723    H    3.63005    -0.02515   -0.18809  
 O5724    O    3.54205    -0.11475   -0.66506  
 C5725    C    3.59510    -0.10471   -0.63083  
 H5726    H    3.57515    -0.10351   -0.66599  
 O5727    O    3.29205    -0.08698   0.33112   
 C5728    C    3.34510    -0.07693   0.36535   
 H5729    H    3.32515    -0.07574   0.33019   
 O5730    O    3.79205    -0.08698   0.33112   
 C5731    C    3.84510    -0.07693   0.36535   
 H5732    H    3.82515    -0.07574   0.33019   
 O5733    O    3.96810    -0.04133   -0.13656  
 C5734    C    3.96710    -0.04530   0.04126   
 H5735    H    3.94510    -0.04464   0.01154   
 O5736    O    3.71810    -0.01356   0.85962   
 C5737    C    3.71710    -0.01752   1.03744   
 H5738    H    3.69510    -0.01686   1.00772   
 O5739    O    3.78190    -0.10615   0.52756   
 C5740    C    3.78290    -0.11011   0.70538   
 H5741    H    3.80490    -0.10945   0.67566   
 O5742    O    3.75000    -0.09165   0.16356   
 C5743    C    3.75000    -0.08750   -0.01359  
 H5744    H    3.75000    -0.08409   0.03073   
 O5745    O    3.75000    -0.01087   0.45325   
 C5746    C    3.75000    -0.00709   0.27476   
 H5747    H    3.75000    -0.01183   0.28987   
 O5748    O    4.00000    -0.07569   1.11736   
 C5749    C    4.00000    -0.07190   0.93888   
 H5750    H    4.00000    -0.07664   0.95399   
 O5751    O    3.57395    -0.12302   -0.58032  
 C5752    C    3.62800    -0.11324   -0.54343  
 H5753    H    3.63005    -0.11775   -0.52015  
 O5754    O    3.82395    -0.09525   0.41586   
 C5755    C    3.87800    -0.08546   0.45275   
 H5756    H    3.88005    -0.08997   0.47603   
 O5757    O    3.54205    -0.02216   -0.33300  
 C5758    C    3.59510    -0.01211   -0.29877  
 H5759    H    3.57515    -0.01092   -0.33393  
 O5760    O    3.42605    -0.04601   -0.30411  
 C5761    C    3.37200    -0.05587   -0.33768  
 H5762    H    3.36995    -0.05299   -0.28791  
 O5763    O    3.70795    -0.11436   0.23289   
 C5764    C    3.65490    -0.12434   0.19534   
 H5765    H    3.67485    -0.12390   0.15745   
 O5766    O    3.95795    -0.04955   -0.43122  
 C5767    C    3.90490    -0.05952   -0.46878  
 H5768    H    3.92485    -0.05909   -0.50667  
 O5769    O    3.95795    -0.05920   1.32729   
 C5770    C    3.90490    -0.04915   1.36153   
 H5771    H    3.92485    -0.04796   1.32636   
 O5772    O    3.70795    0.00562    0.66317   
 C5773    C    3.65490    0.01566    0.69741   
 H5774    H    3.67485    0.01686    0.66224   
 O5775    O    3.42605    -0.03043   -0.24826  
 C5776    C    3.37200    -0.02064   -0.21137  
 H5777    H    3.36995    -0.02515   -0.18809  
 O5778    O    3.82395    -0.01823   0.69206   
 C5779    C    3.87800    -0.02809   0.65849   
 H5780    H    3.88005    -0.02521   0.70827   
 O5781    O    3.57395    0.00955    1.68824   
 C5782    C    3.62800    -0.00031   1.65467   
 H5783    H    3.63005    0.00257    1.70444   
 O5784    O    3.54205    -0.04955   -0.43122  
 C5785    C    3.59510    -0.05952   -0.46878  
 H5786    H    3.57515    -0.05909   -0.50667  
 O5787    O    3.53190    -0.14385   -0.02366  
 C5788    C    4.03290    -0.04729   0.13058   
 H5789    H    4.05490    -0.04796   0.16030   
 O5790    O    3.78190    -0.02348   1.30458   
 C5791    C    3.78290    -0.01951   1.12676   
 H5792    H    3.80490    -0.02018   1.15648   
 O5793    O    3.71810    -0.11607   0.97252   
 C5794    C    3.71710    -0.11211   0.79470   
 H5795    H    3.69510    -0.11277   0.82442   
 O5796    O    3.75000    0.01087    0.05066   
 C5797    C    3.75000    0.00709    0.22914   
 H5798    H    3.75000    0.01183    0.21403   
 O5799    O    3.50000    -0.14654   0.38272   
 C5800    C    4.00000    -0.05773   0.89326   
 H5801    H    4.00000    -0.05299   0.87815   
 O5802    O    3.75000    -0.09354   -0.32377  
 C5803    C    3.75000    -0.09769   -0.14662  
 H5804    H    3.75000    -0.10110   -0.19095  
 O5805    O    3.92605    -0.04659   0.47596   
 C5806    C    3.87200    -0.03673   0.50953   
 H5807    H    3.86995    -0.03961   0.45975   
 O5808    O    3.67605    -0.01881   1.47213   
 C5809    C    3.62200    -0.00895   1.50571   
 H5810    H    3.61995    -0.01183   1.45593   
 O5811    O    3.70795    -0.07082   -0.39310  
 C5812    C    3.65490    -0.06085   -0.35555  
 H5813    H    3.67485    -0.06128   -0.31766  
 O5814    O    3.32395    0.00265    -0.24401  
 C5815    C    3.37800    -0.00713   -0.28090  
 H5816    H    3.38005    -0.00262   -0.30418  
 O5817    O    3.79205    -0.00562   -0.15927  
 C5818    C    3.84510    -0.05270   1.46679   
 H5819    H    3.82515    -0.05389   1.50195   
 O5820    O    3.54205    0.02216    0.83691   
 C5821    C    3.59510    0.01211    0.80267   
 H5822    H    3.57515    0.01092    0.83784   
 O5823    O    3.54205    -0.13564   0.27101   
 C5824    C    3.59510    -0.12566   0.30857   
 H5825    H    3.57515    -0.12610   0.34646   
 O5826    O    3.79205    -0.07082   -0.39310  
 C5827    C    3.84510    -0.06085   -0.35555  
 H5828    H    3.82515    -0.06128   -0.31766  
 O5829    O    3.32395    -0.07436   -0.52022  
 C5830    C    3.37800    -0.06450   -0.48665  
 H5831    H    3.38005    -0.06738   -0.53642  
 O5832    O    3.67605    -0.12698   1.08422   
 C5833    C    3.62200    -0.09973   -0.61296  
 H5834    H    3.61995    -0.09522   -0.63624  
 O5835    O    3.92605    -0.06216   0.42011   
 C5836    C    3.87200    -0.07195   0.38322   
 H5837    H    3.86995    -0.06744   0.35994   
 O5838    O    3.70795    -0.00562   -0.15927  
 C5839    C    3.65490    -0.01566   -0.19350  
 H5840    H    3.67485    -0.01686   -0.15834  
 C5841    C    3.50000    -0.05042   0.27071   
 C5842    C    3.50000    -0.04829   0.17525   
 C5843    C    3.75000    -0.11523   0.93483   
 C5844    C    3.75000    -0.11310   0.83936   
 C5845    C    4.00000    -0.05042   0.27071   
 C5846    C    4.00000    -0.04829   0.17525   
 C5847    C    3.75000    -0.02264   1.26689   
 C5848    C    3.75000    -0.02051   1.17142   
 C5849    C    3.75000    0.00412    0.06716   
 C5850    C    3.75000    0.00199    0.16263   
 C5851    C    4.00000    -0.06069   0.73128   
 C5852    C    4.00000    -0.06282   0.82675   
 C5853    C    3.50000    -0.06069   0.73128   
 C5854    C    3.50000    -0.06282   0.82675   
 C5855    C    3.75000    -0.08847   -0.26490  
 C5856    C    3.75000    -0.09060   -0.16943  
 C5857    C    3.43065    -0.06840   0.45494   
 C5858    C    3.40190    -0.07372   0.43585   
 C5859    C    3.68065    -0.00358   -0.20918  
 C5860    C    3.65190    -0.00891   -0.22827  
 C5861    C    3.68065    -0.09618   -0.54124  
 C5862    C    3.65190    -0.10150   -0.56033  
 C5863    C    3.93065    -0.06840   0.45494   
 C5864    C    3.90190    -0.07372   0.43585   
 C5865    C    3.56935    -0.13531   0.21499   
 C5866    C    3.59810    -0.12998   0.23409   
 C5867    C    3.81935    -0.07049   -0.44912  
 C5868    C    3.84810    -0.06517   -0.43003  
 C5869    C    3.56935    -0.04271   0.54705   
 C5870    C    3.59810    -0.03739   0.56615   
 C5871    C    3.31935    -0.07049   -0.44912  
 C5872    C    3.34810    -0.06517   -0.43003  
 C5873    C    3.56935    -0.06840   0.45494   
 C5874    C    3.59810    -0.07372   0.43585   
 C5875    C    3.31935    -0.00358   -0.20918  
 C5876    C    3.34810    -0.00891   -0.22827  
 C5877    C    3.81935    -0.04062   1.45112   
 C5878    C    3.84810    -0.04594   1.43202   
 C5879    C    3.56935    0.02419    0.78700   
 C5880    C    3.59810    0.01887    0.76790   
 C5881    C    3.68065    -0.07049   -0.44912  
 C5882    C    3.65190    -0.06517   -0.43003  
 C5883    C    3.43065    -0.04271   0.54705   
 C5884    C    3.40190    -0.03739   0.56615   
 C5885    C    3.93065    -0.04271   0.54705   
 C5886    C    3.90190    -0.03739   0.56615   
 C5887    C    3.68065    -0.01494   1.54323   
 C5888    C    3.65190    -0.00961   1.56232   
 C5889    C    3.50000    -0.04217   -0.09887  
 C5890    C    3.50000    -0.04430   -0.00340  
 C5891    C    3.75000    -0.10699   0.56525   
 C5892    C    3.75000    -0.10912   0.66072   
 C5893    C    4.00000    -0.04217   -0.09887  
 C5894    C    4.00000    -0.04430   -0.00340  
 C5895    C    3.75000    -0.01440   0.89731   
 C5896    C    3.75000    -0.01653   0.99277   
 C5897    C    3.75000    -0.09671   0.10468   
 C5898    C    3.75000    -0.09459   0.00922   
 C5899    C    3.50000    -0.06894   1.10086   
 C5900    C    3.50000    -0.06681   1.00539   
 C5901    C    3.75000    -0.00412   0.43674   
 C5902    C    3.75000    -0.00199   0.34128   
 C5903    C    4.00000    -0.06894   1.10086   
 C5904    C    4.00000    -0.06681   1.00539   
 C5905    C    3.56935    -0.04988   -0.37521  
 C5906    C    3.59810    -0.05520   -0.39430  
 C5907    C    3.31935    -0.02210   0.62097   
 C5908    C    3.34810    -0.02743   0.60188   
 C5909    C    3.81935    -0.02210   0.62097   
 C5910    C    3.84810    -0.02743   0.60188   
 C5911    C    3.56935    0.00568    1.61714   
 C5912    C    3.59810    0.00035    1.59805   
 C5913    C    3.93065    -0.06123   1.37720   
 C5914    C    3.90190    -0.05591   1.39629   
 C5915    C    3.68065    0.00358    0.71308   
 C5916    C    3.65190    0.00891    0.73218   
 C5917    C    3.68065    -0.08901   0.38102   
 C5918    C    3.65190    -0.08369   0.40012   
 C5919    C    3.43065    -0.02419   -0.28309  
 C5920    C    3.40190    -0.01887   -0.26400  
 C5921    C    3.43065    -0.04988   -0.37521  
 C5922    C    3.40190    -0.05520   -0.39430  
 C5923    C    3.68065    -0.02210   0.62097   
 C5924    C    3.65190    -0.02743   0.60188   
 C5925    C    3.68065    -0.11469   0.28891   
 C5926    C    3.65190    -0.12002   0.26982   
 C5927    C    3.93065    -0.04988   -0.37521  
 C5928    C    3.90190    -0.05520   -0.39430  
 C5929    C    3.31935    -0.08901   0.38102   
 C5930    C    3.34810    -0.08369   0.40012   
 C5931    C    3.56935    -0.02419   -0.28309  
 C5932    C    3.59810    -0.01887   -0.26400  
 C5933    C    3.56935    -0.11679   -0.61515  
 C5934    C    3.59810    -0.11146   -0.59606  
 C5935    C    3.81935    -0.08901   0.38102   
 C5936    C    3.84810    -0.08369   0.40012   
 Zn5937   Zn   1.04340    0.44605    0.42894   
 Zn5938   Zn   1.29340    0.38124    1.09306   
 Zn5939   Zn   1.45660    0.44605    0.42894   
 Zn5940   Zn   1.20660    0.47383    1.42511   
 Zn5941   Zn   0.95660    0.44605    0.42894   
 Zn5942   Zn   1.25000    0.49961    -0.11989  
 Zn5943   Zn   1.50000    0.43480    0.54423   
 Zn5944   Zn   1.00000    0.43480    0.54423   
 Zn5945   Zn   1.25000    0.42310    -0.39430  
 Zn5946   Zn   1.00000    0.45087    0.60188   
 Zn5947   Zn   1.25000    0.40702    -0.45195  
 Zn5948   Zn   1.04340    0.35346    0.09688   
 Zn5949   Zn   1.25000    0.51569    -0.06224  
 Zn5950   Zn   1.29340    0.47383    1.42511   
 Zn5951   Zn   1.20660    0.38124    1.09306   
 Zn5952   Zn   1.00000    0.35828    0.26982   
 Zn5953   Zn   0.95660    0.46136    -0.25709  
 Zn5954   Zn   1.04340    0.36876    -0.58915  
 Zn5955   Zn   1.29340    0.48913    0.73908   
 Zn5956   Zn   1.04340    0.46136    -0.25709  
 Zn5957   Zn   1.25000    0.39172    0.23409   
 Zn5958   Zn   1.25000    0.50039    0.62379   
 Zn5959   Zn   1.00000    0.47261    -0.37238  
 Zn5960   Zn   1.29340    0.39654    0.40702   
 Zn5961   Zn   1.25000    0.48431    0.56615   
 Zn5962   Zn   1.50000    0.45653    -0.43003  
 Zn5963   Zn   1.45660    0.46136    -0.25709  
 Zn5964   Zn   1.20660    0.48913    0.73908   
 Zn5965   Zn   1.20660    0.39654    0.40702   
 Zn5966   Zn   1.25000    0.40779    0.29173   
 Zn5967   Zn   1.00000    0.45653    -0.43003  
 Zn5968   Zn   1.00000    0.38001    -0.70444  
 O5969    O    1.00000    0.44444    0.50100   
 O5970    O    1.50000    0.44444    0.50100   
 O5971    O    1.25000    0.47222    1.49717   
 O5972    O    1.25000    0.41667    -0.49518  
 O5973    O    1.00000    0.46296    -0.32915  
 O5974    O    1.00000    0.37037    -0.66121  
 O5975    O    1.25000    0.49074    0.66703   
 O5976    O    1.25000    0.39815    0.33497   
 O5977    O    1.03190    0.44874    0.30840   
 C5978    C    1.03290    0.45271    0.13058   
 H5979    H    1.05490    0.45204    0.16030   
 O5980    O    1.28190    0.38393    0.97252   
 C5981    C    1.28290    0.38789    0.79470   
 H5982    H    1.30490    0.38723    0.82442   
 O5983    O    1.46810    0.44874    0.30840   
 C5984    C    1.46710    0.45271    0.13058   
 H5985    H    1.44510    0.45204    0.16030   
 O5986    O    1.21810    0.47652    1.30458   
 C5987    C    1.21710    0.48049    1.12676   
 H5988    H    1.19510    0.47982    1.15648   
 O5989    O    0.96810    0.44874    0.30840   
 C5990    C    0.96710    0.45271    0.13058   
 H5991    H    0.94510    0.45204    0.16030   
 O5992    O    1.25000    0.49906    0.00829   
 C5993    C    1.25000    0.49490    0.18544   
 H5994    H    1.25000    0.49149    0.14111   
 O5995    O    1.50000    0.43424    0.67240   
 C5996    C    1.50000    0.43009    0.84956   
 H5997    H    1.50000    0.42668    0.80523   
 O5998    O    1.00000    0.43424    0.67240   
 C5999    C    1.00000    0.43009    0.84956   
 H6000    H    1.00000    0.42668    0.80523   
 O6001    O    1.25000    0.41828    -0.28140  
 C6002    C    1.25000    0.41450    -0.10292  
 H6003    H    1.25000    0.41923    -0.11803  
 O6004    O    1.00000    0.44606    0.71478   
 C6005    C    1.00000    0.44227    0.89326   
 H6006    H    1.00000    0.44701    0.87815   
 O6007    O    0.92605    0.43784    0.42011   
 C6008    C    0.87200    0.42805    0.38322   
 H6009    H    0.86995    0.43256    0.35994   
 O6010    O    1.17605    0.50265    -0.24401  
 C6011    C    1.12200    0.49287    -0.28090  
 H6012    H    1.11995    0.49738    -0.30418  
 O6013    O    1.20795    0.40179    -0.49133  
 C6014    C    1.15490    0.39174    -0.52556  
 H6015    H    1.17485    0.39055    -0.49040  
 O6016    O    0.95795    0.42957    0.50485   
 C6017    C    0.90490    0.41952    0.47061   
 H6018    H    0.92485    0.41833    0.50578   
 O6019    O    1.45795    0.42957    0.50485   
 C6020    C    1.40490    0.41952    0.47061   
 H6021    H    1.42485    0.41833    0.50578   
 O6022    O    1.07395    0.36082    0.14390   
 C6023    C    1.12800    0.37068    0.17747   
 H6024    H    1.13005    0.36780    0.12770   
 O6025    O    1.32395    0.38860    1.14008   
 C6026    C    1.37800    0.43550    -0.48665  
 H6027    H    1.38005    0.43262    -0.53642  
 O6028    O    1.07395    0.45341    0.47596   
 C6029    C    1.12800    0.46327    0.50953   
 H6030    H    1.13005    0.46039    0.45975   
 O6031    O    0.79205    0.42918    -0.39310  
 C6032    C    0.84510    0.43915    -0.35555  
 H6033    H    0.82515    0.43872    -0.31766  
 O6034    O    1.04205    0.45696    0.60307   
 C6035    C    1.09510    0.46693    0.64063   
 H6036    H    1.07515    0.46649    0.67851   
 O6037    O    1.04205    0.42957    0.50485   
 C6038    C    1.09510    0.41952    0.47061   
 H6039    H    1.07515    0.41833    0.50578   
 O6040    O    0.79205    0.49438    -0.15927  
 C6041    C    0.84510    0.48434    -0.19350  
 H6042    H    0.82515    0.48314    -0.15834  
 O6043    O    1.32395    0.46562    1.41628   
 C6044    C    1.37800    0.45583    1.37939   
 H6045    H    1.38005    0.46034    1.35611   
 O6046    O    1.07395    0.53043    0.75217   
 C6047    C    1.12800    0.52064    0.71527   
 H6048    H    1.13005    0.52515    0.69200   
 O6049    O    1.07395    0.43784    0.42011   
 C6050    C    1.12800    0.42805    0.38322   
 H6051    H    1.13005    0.43256    0.35994   
 O6052    O    1.17605    0.42564    -0.52022  
 C6053    C    1.12200    0.43550    -0.48665  
 H6054    H    1.11995    0.43262    -0.53642  
 O6055    O    0.92605    0.45341    0.47596   
 C6056    C    0.87200    0.46327    0.50953   
 H6057    H    0.86995    0.46039    0.45975   
 O6058    O    1.45795    0.45696    0.60307   
 C6059    C    1.40490    0.46693    0.64063   
 H6060    H    1.42485    0.46649    0.67851   
 O6061    O    1.20795    0.52177    -0.06105  
 C6062    C    1.15490    0.49471    1.63680   
 H6063    H    1.17485    0.49427    1.67469   
 O6064    O    0.95795    0.45696    0.60307   
 C6065    C    0.90490    0.46693    0.64063   
 H6066    H    0.92485    0.46649    0.67851   
 O6067    O    0.96810    0.45867    -0.13656  
 C6068    C    0.96710    0.45470    0.04126   
 H6069    H    0.94510    0.45536    0.01154   
 O6070    O    1.21810    0.39385    0.52756   
 C6071    C    1.21710    0.38989    0.70538   
 H6072    H    1.19510    0.39055    0.67566   
 O6073    O    1.53190    0.45867    -0.13656  
 C6074    C    1.53290    0.45470    0.04126   
 H6075    H    1.55490    0.45536    0.01154   
 O6076    O    1.28190    0.48644    0.85962   
 C6077    C    1.28290    0.48248    1.03744   
 H6078    H    1.30490    0.48314    1.00772   
 O6079    O    1.03190    0.45867    -0.13656  
 C6080    C    1.03290    0.45470    0.04126   
 H6081    H    1.05490    0.45536    0.01154   
 O6082    O    1.25000    0.39654    0.12119   
 C6083    C    1.25000    0.40032    -0.05729  
 H6084    H    1.25000    0.39558    -0.04219  
 O6085    O    1.00000    0.42431    1.11736   
 C6086    C    1.00000    0.42810    0.93888   
 H6087    H    1.00000    0.42336    0.95399   
 O6088    O    1.25000    0.50094    0.49562   
 C6089    C    1.25000    0.50510    0.31846   
 H6090    H    1.25000    0.50851    0.36279   
 O6091    O    1.50000    0.43613    1.15973   
 C6092    C    1.50000    0.44028    0.98258   
 H6093    H    1.50000    0.44369    1.02691   
 O6094    O    1.00000    0.43613    1.15973   
 C6095    C    1.00000    0.44028    0.98258   
 H6096    H    1.00000    0.44369    1.02691   
 O6097    O    1.07395    0.45399    -0.30411  
 C6098    C    1.12800    0.44413    -0.33768  
 H6099    H    1.13005    0.44701    -0.28791  
 O6100    O    0.82395    0.48177    0.69206   
 C6101    C    0.87800    0.47191    0.65849   
 H6102    H    0.88005    0.47479    0.70827   
 O6103    O    1.29205    0.47823    0.56495   
 C6104    C    1.34510    0.46826    0.52739   
 H6105    H    1.32515    0.46869    0.48951   
 O6106    O    1.04205    0.50601    1.56113   
 C6107    C    1.09510    0.49603    1.52357   
 H6108    H    1.07515    0.49647    1.48568   
 O6109    O    0.79205    0.47823    0.56495   
 C6110    C    0.84510    0.46826    0.52739   
 H6111    H    0.82515    0.46869    0.48951   
 O6112    O    1.42605    0.43253    1.41203   
 C6113    C    1.37200    0.44232    1.44892   
 H6114    H    1.36995    0.43781    1.47220   
 O6115    O    1.17605    0.49735    0.74791   
 C6116    C    1.12200    0.50713    0.78481   
 H6117    H    1.11995    0.50262    0.80808   
 O6118    O    1.17605    0.40475    0.41586   
 C6119    C    1.12200    0.41454    0.45275   
 H6120    H    1.11995    0.41003    0.47603   
 O6121    O    1.20795    0.41302    0.33112   
 C6122    C    1.15490    0.42307    0.36535   
 H6123    H    1.17485    0.42426    0.33019   
 O6124    O    0.95795    0.47784    -0.33300  
 C6125    C    0.90490    0.48789    -0.29877  
 H6126    H    0.92485    0.48908    -0.33393  
 O6127    O    0.95795    0.45045    -0.43122  
 C6128    C    0.90490    0.44048    -0.46878  
 H6129    H    0.92485    0.44091    -0.50667  
 O6130    O    1.20795    0.47823    0.56495   
 C6131    C    1.15490    0.46826    0.52739   
 H6132    H    1.17485    0.46869    0.48951   
 O6133    O    1.17605    0.38918    0.36000   
 C6134    C    1.12200    0.37932    0.32643   
 H6135    H    1.11995    0.38220    0.37621   
 O6136    O    1.42605    0.45399    -0.30411  
 C6137    C    1.37200    0.44413    -0.33768  
 H6138    H    1.36995    0.44701    -0.28791  
 O6139    O    1.17605    0.48177    0.69206   
 C6140    C    1.12200    0.47191    0.65849   
 H6141    H    1.11995    0.47479    0.70827   
 O6142    O    0.82395    0.40475    0.41586   
 C6143    C    0.87800    0.41454    0.45275   
 H6144    H    0.88005    0.41003    0.47603   
 O6145    O    1.07395    0.46957    -0.24826  
 C6146    C    1.12800    0.47936    -0.21137  
 H6147    H    1.13005    0.47485    -0.18809  
 O6148    O    1.04205    0.38525    -0.66506  
 C6149    C    1.09510    0.39529    -0.63083  
 H6150    H    1.07515    0.39649    -0.66599  
 O6151    O    0.79205    0.41302    0.33112   
 C6152    C    0.84510    0.42307    0.36535   
 H6153    H    0.82515    0.42426    0.33019   
 O6154    O    1.29205    0.41302    0.33112   
 C6155    C    1.34510    0.42307    0.36535   
 H6156    H    1.32515    0.42426    0.33019   
 O6157    O    1.46810    0.45867    -0.13656  
 C6158    C    1.46710    0.45470    0.04126   
 H6159    H    1.44510    0.45536    0.01154   
 O6160    O    1.21810    0.48644    0.85962   
 C6161    C    1.21710    0.48248    1.03744   
 H6162    H    1.19510    0.48314    1.00772   
 O6163    O    1.28190    0.39385    0.52756   
 C6164    C    1.28290    0.38989    0.70538   
 H6165    H    1.30490    0.39055    0.67566   
 O6166    O    1.25000    0.40835    0.16356   
 C6167    C    1.25000    0.41250    -0.01359  
 H6168    H    1.25000    0.41591    0.03073   
 O6169    O    1.25000    0.48913    0.45325   
 C6170    C    1.25000    0.49291    0.27476   
 H6171    H    1.25000    0.48817    0.28987   
 O6172    O    1.50000    0.42431    1.11736   
 C6173    C    1.50000    0.42810    0.93888   
 H6174    H    1.50000    0.42336    0.95399   
 O6175    O    1.07395    0.37698    -0.58032  
 C6176    C    1.12800    0.38676    -0.54343  
 H6177    H    1.13005    0.38225    -0.52015  
 O6178    O    1.32395    0.40475    0.41586   
 C6179    C    1.37800    0.41454    0.45275   
 H6180    H    1.38005    0.41003    0.47603   
 O6181    O    1.04205    0.47784    -0.33300  
 C6182    C    1.09510    0.48789    -0.29877  
 H6183    H    1.07515    0.48908    -0.33393  
 O6184    O    0.92605    0.45399    -0.30411  
 C6185    C    0.87200    0.44413    -0.33768  
 H6186    H    0.86995    0.44701    -0.28791  
 O6187    O    1.20795    0.38564    0.23289   
 C6188    C    1.15490    0.37566    0.19534   
 H6189    H    1.17485    0.37610    0.15745   
 O6190    O    1.45795    0.45045    -0.43122  
 C6191    C    1.40490    0.44048    -0.46878  
 H6192    H    1.42485    0.44091    -0.50667  
 O6193    O    1.45795    0.44080    1.32729   
 C6194    C    1.40490    0.45085    1.36153   
 H6195    H    1.42485    0.45204    1.32636   
 O6196    O    1.20795    0.50562    0.66317   
 C6197    C    1.15490    0.51566    0.69741   
 H6198    H    1.17485    0.51686    0.66224   
 O6199    O    0.92605    0.46957    -0.24826  
 C6200    C    0.87200    0.47936    -0.21137  
 H6201    H    0.86995    0.47485    -0.18809  
 O6202    O    1.32395    0.48177    0.69206   
 C6203    C    1.37800    0.47191    0.65849   
 H6204    H    1.38005    0.47479    0.70827   
 O6205    O    1.07395    0.50955    1.68824   
 C6206    C    1.12800    0.49969    1.65467   
 H6207    H    1.13005    0.50257    1.70444   
 O6208    O    1.04205    0.45045    -0.43122  
 C6209    C    1.09510    0.44048    -0.46878  
 H6210    H    1.07515    0.44091    -0.50667  
 O6211    O    1.03190    0.35615    -0.02366  
 C6212    C    1.53290    0.45271    0.13058   
 H6213    H    1.55490    0.45204    0.16030   
 O6214    O    1.28190    0.47652    1.30458   
 C6215    C    1.28290    0.48049    1.12676   
 H6216    H    1.30490    0.47982    1.15648   
 O6217    O    1.21810    0.38393    0.97252   
 C6218    C    1.21710    0.38789    0.79470   
 H6219    H    1.19510    0.38723    0.82442   
 O6220    O    1.25000    0.51087    0.05066   
 C6221    C    1.25000    0.50709    0.22914   
 H6222    H    1.25000    0.51183    0.21403   
 O6223    O    1.00000    0.35346    0.38272   
 C6224    C    1.50000    0.44227    0.89326   
 H6225    H    1.50000    0.44701    0.87815   
 O6226    O    1.25000    0.40646    -0.32377  
 C6227    C    1.25000    0.40231    -0.14662  
 H6228    H    1.25000    0.39890    -0.19095  
 O6229    O    1.42605    0.45341    0.47596   
 C6230    C    1.37200    0.46327    0.50953   
 H6231    H    1.36995    0.46039    0.45975   
 O6232    O    1.17605    0.48119    1.47213   
 C6233    C    1.12200    0.49105    1.50571   
 H6234    H    1.11995    0.48817    1.45593   
 O6235    O    1.20795    0.42918    -0.39310  
 C6236    C    1.15490    0.43915    -0.35555  
 H6237    H    1.17485    0.43872    -0.31766  
 O6238    O    0.82395    0.50265    -0.24401  
 C6239    C    0.87800    0.49287    -0.28090  
 H6240    H    0.88005    0.49738    -0.30418  
 O6241    O    1.29205    0.49438    -0.15927  
 C6242    C    1.34510    0.44730    1.46679   
 H6243    H    1.32515    0.44611    1.50195   
 O6244    O    1.04205    0.52216    0.83691   
 C6245    C    1.09510    0.51211    0.80267   
 H6246    H    1.07515    0.51092    0.83784   
 O6247    O    1.04205    0.36436    0.27101   
 C6248    C    1.09510    0.37434    0.30857   
 H6249    H    1.07515    0.37390    0.34646   
 O6250    O    1.29205    0.42918    -0.39310  
 C6251    C    1.34510    0.43915    -0.35555  
 H6252    H    1.32515    0.43872    -0.31766  
 O6253    O    0.82395    0.42564    -0.52022  
 C6254    C    0.87800    0.43550    -0.48665  
 H6255    H    0.88005    0.43262    -0.53642  
 O6256    O    1.17605    0.37302    1.08422   
 C6257    C    1.12200    0.40027    -0.61296  
 H6258    H    1.11995    0.40478    -0.63624  
 O6259    O    1.42605    0.43784    0.42011   
 C6260    C    1.37200    0.42805    0.38322   
 H6261    H    1.36995    0.43256    0.35994   
 O6262    O    1.20795    0.49438    -0.15927  
 C6263    C    1.15490    0.48434    -0.19350  
 H6264    H    1.17485    0.48314    -0.15834  
 C6265    C    1.00000    0.44958    0.27071   
 C6266    C    1.00000    0.45171    0.17525   
 C6267    C    1.25000    0.38477    0.93483   
 C6268    C    1.25000    0.38690    0.83936   
 C6269    C    1.50000    0.44958    0.27071   
 C6270    C    1.50000    0.45171    0.17525   
 C6271    C    1.25000    0.47736    1.26689   
 C6272    C    1.25000    0.47949    1.17142   
 C6273    C    1.25000    0.50412    0.06716   
 C6274    C    1.25000    0.50199    0.16263   
 C6275    C    1.50000    0.43931    0.73128   
 C6276    C    1.50000    0.43718    0.82675   
 C6277    C    1.00000    0.43931    0.73128   
 C6278    C    1.00000    0.43718    0.82675   
 C6279    C    1.25000    0.41153    -0.26490  
 C6280    C    1.25000    0.40940    -0.16943  
 C6281    C    0.93065    0.43160    0.45494   
 C6282    C    0.90190    0.42628    0.43585   
 C6283    C    1.18065    0.49642    -0.20918  
 C6284    C    1.15190    0.49109    -0.22827  
 C6285    C    1.18065    0.40382    -0.54124  
 C6286    C    1.15190    0.39850    -0.56033  
 C6287    C    1.43065    0.43160    0.45494   
 C6288    C    1.40190    0.42628    0.43585   
 C6289    C    1.06935    0.36469    0.21499   
 C6290    C    1.09810    0.37002    0.23409   
 C6291    C    1.31935    0.42951    -0.44912  
 C6292    C    1.34810    0.43483    -0.43003  
 C6293    C    1.06935    0.45729    0.54705   
 C6294    C    1.09810    0.46261    0.56615   
 C6295    C    0.81935    0.42951    -0.44912  
 C6296    C    0.84810    0.43483    -0.43003  
 C6297    C    1.06935    0.43160    0.45494   
 C6298    C    1.09810    0.42628    0.43585   
 C6299    C    0.81935    0.49642    -0.20918  
 C6300    C    0.84810    0.49109    -0.22827  
 C6301    C    1.31935    0.45938    1.45112   
 C6302    C    1.34810    0.45406    1.43202   
 C6303    C    1.06935    0.52419    0.78700   
 C6304    C    1.09810    0.51887    0.76790   
 C6305    C    1.18065    0.42951    -0.44912  
 C6306    C    1.15190    0.43483    -0.43003  
 C6307    C    0.93065    0.45729    0.54705   
 C6308    C    0.90190    0.46261    0.56615   
 C6309    C    1.43065    0.45729    0.54705   
 C6310    C    1.40190    0.46261    0.56615   
 C6311    C    1.18065    0.48506    1.54323   
 C6312    C    1.15190    0.49039    1.56232   
 C6313    C    1.00000    0.45783    -0.09887  
 C6314    C    1.00000    0.45570    -0.00340  
 C6315    C    1.25000    0.39301    0.56525   
 C6316    C    1.25000    0.39088    0.66072   
 C6317    C    1.50000    0.45783    -0.09887  
 C6318    C    1.50000    0.45570    -0.00340  
 C6319    C    1.25000    0.48560    0.89731   
 C6320    C    1.25000    0.48347    0.99277   
 C6321    C    1.25000    0.40329    0.10468   
 C6322    C    1.25000    0.40541    0.00922   
 C6323    C    1.00000    0.43106    1.10086   
 C6324    C    1.00000    0.43319    1.00539   
 C6325    C    1.25000    0.49588    0.43674   
 C6326    C    1.25000    0.49801    0.34128   
 C6327    C    1.50000    0.43106    1.10086   
 C6328    C    1.50000    0.43319    1.00539   
 C6329    C    1.06935    0.45012    -0.37521  
 C6330    C    1.09810    0.44480    -0.39430  
 C6331    C    0.81935    0.47790    0.62097   
 C6332    C    0.84810    0.47257    0.60188   
 C6333    C    1.31935    0.47790    0.62097   
 C6334    C    1.34810    0.47257    0.60188   
 C6335    C    1.06935    0.50568    1.61714   
 C6336    C    1.09810    0.50035    1.59805   
 C6337    C    1.43065    0.43877    1.37720   
 C6338    C    1.40190    0.44409    1.39629   
 C6339    C    1.18065    0.50358    0.71308   
 C6340    C    1.15190    0.50891    0.73218   
 C6341    C    1.18065    0.41099    0.38102   
 C6342    C    1.15190    0.41631    0.40012   
 C6343    C    0.93065    0.47581    -0.28309  
 C6344    C    0.90190    0.48113    -0.26400  
 C6345    C    0.93065    0.45012    -0.37521  
 C6346    C    0.90190    0.44480    -0.39430  
 C6347    C    1.18065    0.47790    0.62097   
 C6348    C    1.15190    0.47257    0.60188   
 C6349    C    1.18065    0.38531    0.28891   
 C6350    C    1.15190    0.37998    0.26982   
 C6351    C    1.43065    0.45012    -0.37521  
 C6352    C    1.40190    0.44480    -0.39430  
 C6353    C    0.81935    0.41099    0.38102   
 C6354    C    0.84810    0.41631    0.40012   
 C6355    C    1.06935    0.47581    -0.28309  
 C6356    C    1.09810    0.48113    -0.26400  
 C6357    C    1.06935    0.38321    -0.61515  
 C6358    C    1.09810    0.38854    -0.59606  
 C6359    C    1.31935    0.41099    0.38102   
 C6360    C    1.34810    0.41631    0.40012   
 Zn6361   Zn   2.04340    0.44605    0.42894   
 Zn6362   Zn   2.29340    0.38124    1.09306   
 Zn6363   Zn   2.45660    0.44605    0.42894   
 Zn6364   Zn   2.20660    0.47383    1.42511   
 Zn6365   Zn   1.95660    0.44605    0.42894   
 Zn6366   Zn   2.25000    0.49961    -0.11989  
 Zn6367   Zn   2.50000    0.43480    0.54423   
 Zn6368   Zn   2.00000    0.43480    0.54423   
 Zn6369   Zn   2.25000    0.42310    -0.39430  
 Zn6370   Zn   2.00000    0.45087    0.60188   
 Zn6371   Zn   2.25000    0.40702    -0.45195  
 Zn6372   Zn   2.04340    0.35346    0.09688   
 Zn6373   Zn   2.25000    0.51569    -0.06224  
 Zn6374   Zn   2.29340    0.47383    1.42511   
 Zn6375   Zn   2.20660    0.38124    1.09306   
 Zn6376   Zn   2.00000    0.35828    0.26982   
 Zn6377   Zn   1.95660    0.46136    -0.25709  
 Zn6378   Zn   2.04340    0.36876    -0.58915  
 Zn6379   Zn   2.29340    0.48913    0.73908   
 Zn6380   Zn   2.04340    0.46136    -0.25709  
 Zn6381   Zn   2.25000    0.39172    0.23409   
 Zn6382   Zn   2.25000    0.50039    0.62379   
 Zn6383   Zn   2.00000    0.47261    -0.37238  
 Zn6384   Zn   2.29340    0.39654    0.40702   
 Zn6385   Zn   2.25000    0.48431    0.56615   
 Zn6386   Zn   2.50000    0.45653    -0.43003  
 Zn6387   Zn   2.45660    0.46136    -0.25709  
 Zn6388   Zn   2.20660    0.48913    0.73908   
 Zn6389   Zn   2.20660    0.39654    0.40702   
 Zn6390   Zn   2.25000    0.40779    0.29173   
 Zn6391   Zn   2.00000    0.45653    -0.43003  
 Zn6392   Zn   2.00000    0.38001    -0.70444  
 O6393    O    2.00000    0.44444    0.50100   
 O6394    O    2.50000    0.44444    0.50100   
 O6395    O    2.25000    0.47222    1.49717   
 O6396    O    2.25000    0.41667    -0.49518  
 O6397    O    2.00000    0.46296    -0.32915  
 O6398    O    2.00000    0.37037    -0.66121  
 O6399    O    2.25000    0.49074    0.66703   
 O6400    O    2.25000    0.39815    0.33497   
 O6401    O    2.03190    0.44874    0.30840   
 C6402    C    2.03290    0.45271    0.13058   
 H6403    H    2.05490    0.45204    0.16030   
 O6404    O    2.28190    0.38393    0.97252   
 C6405    C    2.28290    0.38789    0.79470   
 H6406    H    2.30490    0.38723    0.82442   
 O6407    O    2.46810    0.44874    0.30840   
 C6408    C    2.46710    0.45271    0.13058   
 H6409    H    2.44510    0.45204    0.16030   
 O6410    O    2.21810    0.47652    1.30458   
 C6411    C    2.21710    0.48049    1.12676   
 H6412    H    2.19510    0.47982    1.15648   
 O6413    O    1.96810    0.44874    0.30840   
 C6414    C    1.96710    0.45271    0.13058   
 H6415    H    1.94510    0.45204    0.16030   
 O6416    O    2.25000    0.49906    0.00829   
 C6417    C    2.25000    0.49490    0.18544   
 H6418    H    2.25000    0.49149    0.14111   
 O6419    O    2.50000    0.43424    0.67240   
 C6420    C    2.50000    0.43009    0.84956   
 H6421    H    2.50000    0.42668    0.80523   
 O6422    O    2.00000    0.43424    0.67240   
 C6423    C    2.00000    0.43009    0.84956   
 H6424    H    2.00000    0.42668    0.80523   
 O6425    O    2.25000    0.41828    -0.28140  
 C6426    C    2.25000    0.41450    -0.10292  
 H6427    H    2.25000    0.41923    -0.11803  
 O6428    O    2.00000    0.44606    0.71478   
 C6429    C    2.00000    0.44227    0.89326   
 H6430    H    2.00000    0.44701    0.87815   
 O6431    O    1.92605    0.43784    0.42011   
 C6432    C    1.87200    0.42805    0.38322   
 H6433    H    1.86995    0.43256    0.35994   
 O6434    O    2.17605    0.50265    -0.24401  
 C6435    C    2.12200    0.49287    -0.28090  
 H6436    H    2.11995    0.49738    -0.30418  
 O6437    O    2.20795    0.40179    -0.49133  
 C6438    C    2.15490    0.39174    -0.52556  
 H6439    H    2.17485    0.39055    -0.49040  
 O6440    O    1.95795    0.42957    0.50485   
 C6441    C    1.90490    0.41952    0.47061   
 H6442    H    1.92485    0.41833    0.50578   
 O6443    O    2.45795    0.42957    0.50485   
 C6444    C    2.40490    0.41952    0.47061   
 H6445    H    2.42485    0.41833    0.50578   
 O6446    O    2.07395    0.36082    0.14390   
 C6447    C    2.12800    0.37068    0.17747   
 H6448    H    2.13005    0.36780    0.12770   
 O6449    O    2.32395    0.38860    1.14008   
 C6450    C    2.37800    0.43550    -0.48665  
 H6451    H    2.38005    0.43262    -0.53642  
 O6452    O    2.07395    0.45341    0.47596   
 C6453    C    2.12800    0.46327    0.50953   
 H6454    H    2.13005    0.46039    0.45975   
 O6455    O    1.79205    0.42918    -0.39310  
 C6456    C    1.84510    0.43915    -0.35555  
 H6457    H    1.82515    0.43872    -0.31766  
 O6458    O    2.04205    0.45696    0.60307   
 C6459    C    2.09510    0.46693    0.64063   
 H6460    H    2.07515    0.46649    0.67851   
 O6461    O    2.04205    0.42957    0.50485   
 C6462    C    2.09510    0.41952    0.47061   
 H6463    H    2.07515    0.41833    0.50578   
 O6464    O    1.79205    0.49438    -0.15927  
 C6465    C    1.84510    0.48434    -0.19350  
 H6466    H    1.82515    0.48314    -0.15834  
 O6467    O    2.32395    0.46562    1.41628   
 C6468    C    2.37800    0.45583    1.37939   
 H6469    H    2.38005    0.46034    1.35611   
 O6470    O    2.07395    0.53043    0.75217   
 C6471    C    2.12800    0.52064    0.71527   
 H6472    H    2.13005    0.52515    0.69200   
 O6473    O    2.07395    0.43784    0.42011   
 C6474    C    2.12800    0.42805    0.38322   
 H6475    H    2.13005    0.43256    0.35994   
 O6476    O    2.17605    0.42564    -0.52022  
 C6477    C    2.12200    0.43550    -0.48665  
 H6478    H    2.11995    0.43262    -0.53642  
 O6479    O    1.92605    0.45341    0.47596   
 C6480    C    1.87200    0.46327    0.50953   
 H6481    H    1.86995    0.46039    0.45975   
 O6482    O    2.45795    0.45696    0.60307   
 C6483    C    2.40490    0.46693    0.64063   
 H6484    H    2.42485    0.46649    0.67851   
 O6485    O    2.20795    0.52177    -0.06105  
 C6486    C    2.15490    0.49471    1.63680   
 H6487    H    2.17485    0.49427    1.67469   
 O6488    O    1.95795    0.45696    0.60307   
 C6489    C    1.90490    0.46693    0.64063   
 H6490    H    1.92485    0.46649    0.67851   
 O6491    O    1.96810    0.45867    -0.13656  
 C6492    C    1.96710    0.45470    0.04126   
 H6493    H    1.94510    0.45536    0.01154   
 O6494    O    2.21810    0.39385    0.52756   
 C6495    C    2.21710    0.38989    0.70538   
 H6496    H    2.19510    0.39055    0.67566   
 O6497    O    2.53190    0.45867    -0.13656  
 C6498    C    2.53290    0.45470    0.04126   
 H6499    H    2.55490    0.45536    0.01154   
 O6500    O    2.28190    0.48644    0.85962   
 C6501    C    2.28290    0.48248    1.03744   
 H6502    H    2.30490    0.48314    1.00772   
 O6503    O    2.03190    0.45867    -0.13656  
 C6504    C    2.03290    0.45470    0.04126   
 H6505    H    2.05490    0.45536    0.01154   
 O6506    O    2.25000    0.39654    0.12119   
 C6507    C    2.25000    0.40032    -0.05729  
 H6508    H    2.25000    0.39558    -0.04219  
 O6509    O    2.00000    0.42431    1.11736   
 C6510    C    2.00000    0.42810    0.93888   
 H6511    H    2.00000    0.42336    0.95399   
 O6512    O    2.25000    0.50094    0.49562   
 C6513    C    2.25000    0.50510    0.31846   
 H6514    H    2.25000    0.50851    0.36279   
 O6515    O    2.50000    0.43613    1.15973   
 C6516    C    2.50000    0.44028    0.98258   
 H6517    H    2.50000    0.44369    1.02691   
 O6518    O    2.00000    0.43613    1.15973   
 C6519    C    2.00000    0.44028    0.98258   
 H6520    H    2.00000    0.44369    1.02691   
 O6521    O    2.07395    0.45399    -0.30411  
 C6522    C    2.12800    0.44413    -0.33768  
 H6523    H    2.13005    0.44701    -0.28791  
 O6524    O    1.82395    0.48177    0.69206   
 C6525    C    1.87800    0.47191    0.65849   
 H6526    H    1.88005    0.47479    0.70827   
 O6527    O    2.29205    0.47823    0.56495   
 C6528    C    2.34510    0.46826    0.52739   
 H6529    H    2.32515    0.46869    0.48951   
 O6530    O    2.04205    0.50601    1.56113   
 C6531    C    2.09510    0.49603    1.52357   
 H6532    H    2.07515    0.49647    1.48568   
 O6533    O    1.79205    0.47823    0.56495   
 C6534    C    1.84510    0.46826    0.52739   
 H6535    H    1.82515    0.46869    0.48951   
 O6536    O    2.42605    0.43253    1.41203   
 C6537    C    2.37200    0.44232    1.44892   
 H6538    H    2.36995    0.43781    1.47220   
 O6539    O    2.17605    0.49735    0.74791   
 C6540    C    2.12200    0.50713    0.78481   
 H6541    H    2.11995    0.50262    0.80808   
 O6542    O    2.17605    0.40475    0.41586   
 C6543    C    2.12200    0.41454    0.45275   
 H6544    H    2.11995    0.41003    0.47603   
 O6545    O    2.20795    0.41302    0.33112   
 C6546    C    2.15490    0.42307    0.36535   
 H6547    H    2.17485    0.42426    0.33019   
 O6548    O    1.95795    0.47784    -0.33300  
 C6549    C    1.90490    0.48789    -0.29877  
 H6550    H    1.92485    0.48908    -0.33393  
 O6551    O    1.95795    0.45045    -0.43122  
 C6552    C    1.90490    0.44048    -0.46878  
 H6553    H    1.92485    0.44091    -0.50667  
 O6554    O    2.20795    0.47823    0.56495   
 C6555    C    2.15490    0.46826    0.52739   
 H6556    H    2.17485    0.46869    0.48951   
 O6557    O    2.17605    0.38918    0.36000   
 C6558    C    2.12200    0.37932    0.32643   
 H6559    H    2.11995    0.38220    0.37621   
 O6560    O    2.42605    0.45399    -0.30411  
 C6561    C    2.37200    0.44413    -0.33768  
 H6562    H    2.36995    0.44701    -0.28791  
 O6563    O    2.17605    0.48177    0.69206   
 C6564    C    2.12200    0.47191    0.65849   
 H6565    H    2.11995    0.47479    0.70827   
 O6566    O    1.82395    0.40475    0.41586   
 C6567    C    1.87800    0.41454    0.45275   
 H6568    H    1.88005    0.41003    0.47603   
 O6569    O    2.07395    0.46957    -0.24826  
 C6570    C    2.12800    0.47936    -0.21137  
 H6571    H    2.13005    0.47485    -0.18809  
 O6572    O    2.04205    0.38525    -0.66506  
 C6573    C    2.09510    0.39529    -0.63083  
 H6574    H    2.07515    0.39649    -0.66599  
 O6575    O    1.79205    0.41302    0.33112   
 C6576    C    1.84510    0.42307    0.36535   
 H6577    H    1.82515    0.42426    0.33019   
 O6578    O    2.29205    0.41302    0.33112   
 C6579    C    2.34510    0.42307    0.36535   
 H6580    H    2.32515    0.42426    0.33019   
 O6581    O    2.46810    0.45867    -0.13656  
 C6582    C    2.46710    0.45470    0.04126   
 H6583    H    2.44510    0.45536    0.01154   
 O6584    O    2.21810    0.48644    0.85962   
 C6585    C    2.21710    0.48248    1.03744   
 H6586    H    2.19510    0.48314    1.00772   
 O6587    O    2.28190    0.39385    0.52756   
 C6588    C    2.28290    0.38989    0.70538   
 H6589    H    2.30490    0.39055    0.67566   
 O6590    O    2.25000    0.40835    0.16356   
 C6591    C    2.25000    0.41250    -0.01359  
 H6592    H    2.25000    0.41591    0.03073   
 O6593    O    2.25000    0.48913    0.45325   
 C6594    C    2.25000    0.49291    0.27476   
 H6595    H    2.25000    0.48817    0.28987   
 O6596    O    2.50000    0.42431    1.11736   
 C6597    C    2.50000    0.42810    0.93888   
 H6598    H    2.50000    0.42336    0.95399   
 O6599    O    2.07395    0.37698    -0.58032  
 C6600    C    2.12800    0.38676    -0.54343  
 H6601    H    2.13005    0.38225    -0.52015  
 O6602    O    2.32395    0.40475    0.41586   
 C6603    C    2.37800    0.41454    0.45275   
 H6604    H    2.38005    0.41003    0.47603   
 O6605    O    2.04205    0.47784    -0.33300  
 C6606    C    2.09510    0.48789    -0.29877  
 H6607    H    2.07515    0.48908    -0.33393  
 O6608    O    1.92605    0.45399    -0.30411  
 C6609    C    1.87200    0.44413    -0.33768  
 H6610    H    1.86995    0.44701    -0.28791  
 O6611    O    2.20795    0.38564    0.23289   
 C6612    C    2.15490    0.37566    0.19534   
 H6613    H    2.17485    0.37610    0.15745   
 O6614    O    2.45795    0.45045    -0.43122  
 C6615    C    2.40490    0.44048    -0.46878  
 H6616    H    2.42485    0.44091    -0.50667  
 O6617    O    2.45795    0.44080    1.32729   
 C6618    C    2.40490    0.45085    1.36153   
 H6619    H    2.42485    0.45204    1.32636   
 O6620    O    2.20795    0.50562    0.66317   
 C6621    C    2.15490    0.51566    0.69741   
 H6622    H    2.17485    0.51686    0.66224   
 O6623    O    1.92605    0.46957    -0.24826  
 C6624    C    1.87200    0.47936    -0.21137  
 H6625    H    1.86995    0.47485    -0.18809  
 O6626    O    2.32395    0.48177    0.69206   
 C6627    C    2.37800    0.47191    0.65849   
 H6628    H    2.38005    0.47479    0.70827   
 O6629    O    2.07395    0.50955    1.68824   
 C6630    C    2.12800    0.49969    1.65467   
 H6631    H    2.13005    0.50257    1.70444   
 O6632    O    2.04205    0.45045    -0.43122  
 C6633    C    2.09510    0.44048    -0.46878  
 H6634    H    2.07515    0.44091    -0.50667  
 O6635    O    2.03190    0.35615    -0.02366  
 C6636    C    2.53290    0.45271    0.13058   
 H6637    H    2.55490    0.45204    0.16030   
 O6638    O    2.28190    0.47652    1.30458   
 C6639    C    2.28290    0.48049    1.12676   
 H6640    H    2.30490    0.47982    1.15648   
 O6641    O    2.21810    0.38393    0.97252   
 C6642    C    2.21710    0.38789    0.79470   
 H6643    H    2.19510    0.38723    0.82442   
 O6644    O    2.25000    0.51087    0.05066   
 C6645    C    2.25000    0.50709    0.22914   
 H6646    H    2.25000    0.51183    0.21403   
 O6647    O    2.00000    0.35346    0.38272   
 C6648    C    2.50000    0.44227    0.89326   
 H6649    H    2.50000    0.44701    0.87815   
 O6650    O    2.25000    0.40646    -0.32377  
 C6651    C    2.25000    0.40231    -0.14662  
 H6652    H    2.25000    0.39890    -0.19095  
 O6653    O    2.42605    0.45341    0.47596   
 C6654    C    2.37200    0.46327    0.50953   
 H6655    H    2.36995    0.46039    0.45975   
 O6656    O    2.17605    0.48119    1.47213   
 C6657    C    2.12200    0.49105    1.50571   
 H6658    H    2.11995    0.48817    1.45593   
 O6659    O    2.20795    0.42918    -0.39310  
 C6660    C    2.15490    0.43915    -0.35555  
 H6661    H    2.17485    0.43872    -0.31766  
 O6662    O    1.82395    0.50265    -0.24401  
 C6663    C    1.87800    0.49287    -0.28090  
 H6664    H    1.88005    0.49738    -0.30418  
 O6665    O    2.29205    0.49438    -0.15927  
 C6666    C    2.34510    0.44730    1.46679   
 H6667    H    2.32515    0.44611    1.50195   
 O6668    O    2.04205    0.52216    0.83691   
 C6669    C    2.09510    0.51211    0.80267   
 H6670    H    2.07515    0.51092    0.83784   
 O6671    O    2.04205    0.36436    0.27101   
 C6672    C    2.09510    0.37434    0.30857   
 H6673    H    2.07515    0.37390    0.34646   
 O6674    O    2.29205    0.42918    -0.39310  
 C6675    C    2.34510    0.43915    -0.35555  
 H6676    H    2.32515    0.43872    -0.31766  
 O6677    O    1.82395    0.42564    -0.52022  
 C6678    C    1.87800    0.43550    -0.48665  
 H6679    H    1.88005    0.43262    -0.53642  
 O6680    O    2.17605    0.37302    1.08422   
 C6681    C    2.12200    0.40027    -0.61296  
 H6682    H    2.11995    0.40478    -0.63624  
 O6683    O    2.42605    0.43784    0.42011   
 C6684    C    2.37200    0.42805    0.38322   
 H6685    H    2.36995    0.43256    0.35994   
 O6686    O    2.20795    0.49438    -0.15927  
 C6687    C    2.15490    0.48434    -0.19350  
 H6688    H    2.17485    0.48314    -0.15834  
 C6689    C    2.00000    0.44958    0.27071   
 C6690    C    2.00000    0.45171    0.17525   
 C6691    C    2.25000    0.38477    0.93483   
 C6692    C    2.25000    0.38690    0.83936   
 C6693    C    2.50000    0.44958    0.27071   
 C6694    C    2.50000    0.45171    0.17525   
 C6695    C    2.25000    0.47736    1.26689   
 C6696    C    2.25000    0.47949    1.17142   
 C6697    C    2.25000    0.50412    0.06716   
 C6698    C    2.25000    0.50199    0.16263   
 C6699    C    2.50000    0.43931    0.73128   
 C6700    C    2.50000    0.43718    0.82675   
 C6701    C    2.00000    0.43931    0.73128   
 C6702    C    2.00000    0.43718    0.82675   
 C6703    C    2.25000    0.41153    -0.26490  
 C6704    C    2.25000    0.40940    -0.16943  
 C6705    C    1.93065    0.43160    0.45494   
 C6706    C    1.90190    0.42628    0.43585   
 C6707    C    2.18065    0.49642    -0.20918  
 C6708    C    2.15190    0.49109    -0.22827  
 C6709    C    2.18065    0.40382    -0.54124  
 C6710    C    2.15190    0.39850    -0.56033  
 C6711    C    2.43065    0.43160    0.45494   
 C6712    C    2.40190    0.42628    0.43585   
 C6713    C    2.06935    0.36469    0.21499   
 C6714    C    2.09810    0.37002    0.23409   
 C6715    C    2.31935    0.42951    -0.44912  
 C6716    C    2.34810    0.43483    -0.43003  
 C6717    C    2.06935    0.45729    0.54705   
 C6718    C    2.09810    0.46261    0.56615   
 C6719    C    1.81935    0.42951    -0.44912  
 C6720    C    1.84810    0.43483    -0.43003  
 C6721    C    2.06935    0.43160    0.45494   
 C6722    C    2.09810    0.42628    0.43585   
 C6723    C    1.81935    0.49642    -0.20918  
 C6724    C    1.84810    0.49109    -0.22827  
 C6725    C    2.31935    0.45938    1.45112   
 C6726    C    2.34810    0.45406    1.43202   
 C6727    C    2.06935    0.52419    0.78700   
 C6728    C    2.09810    0.51887    0.76790   
 C6729    C    2.18065    0.42951    -0.44912  
 C6730    C    2.15190    0.43483    -0.43003  
 C6731    C    1.93065    0.45729    0.54705   
 C6732    C    1.90190    0.46261    0.56615   
 C6733    C    2.43065    0.45729    0.54705   
 C6734    C    2.40190    0.46261    0.56615   
 C6735    C    2.18065    0.48506    1.54323   
 C6736    C    2.15190    0.49039    1.56232   
 C6737    C    2.00000    0.45783    -0.09887  
 C6738    C    2.00000    0.45570    -0.00340  
 C6739    C    2.25000    0.39301    0.56525   
 C6740    C    2.25000    0.39088    0.66072   
 C6741    C    2.50000    0.45783    -0.09887  
 C6742    C    2.50000    0.45570    -0.00340  
 C6743    C    2.25000    0.48560    0.89731   
 C6744    C    2.25000    0.48347    0.99277   
 C6745    C    2.25000    0.40329    0.10468   
 C6746    C    2.25000    0.40541    0.00922   
 C6747    C    2.00000    0.43106    1.10086   
 C6748    C    2.00000    0.43319    1.00539   
 C6749    C    2.25000    0.49588    0.43674   
 C6750    C    2.25000    0.49801    0.34128   
 C6751    C    2.50000    0.43106    1.10086   
 C6752    C    2.50000    0.43319    1.00539   
 C6753    C    2.06935    0.45012    -0.37521  
 C6754    C    2.09810    0.44480    -0.39430  
 C6755    C    1.81935    0.47790    0.62097   
 C6756    C    1.84810    0.47257    0.60188   
 C6757    C    2.31935    0.47790    0.62097   
 C6758    C    2.34810    0.47257    0.60188   
 C6759    C    2.06935    0.50568    1.61714   
 C6760    C    2.09810    0.50035    1.59805   
 C6761    C    2.43065    0.43877    1.37720   
 C6762    C    2.40190    0.44409    1.39629   
 C6763    C    2.18065    0.50358    0.71308   
 C6764    C    2.15190    0.50891    0.73218   
 C6765    C    2.18065    0.41099    0.38102   
 C6766    C    2.15190    0.41631    0.40012   
 C6767    C    1.93065    0.47581    -0.28309  
 C6768    C    1.90190    0.48113    -0.26400  
 C6769    C    1.93065    0.45012    -0.37521  
 C6770    C    1.90190    0.44480    -0.39430  
 C6771    C    2.18065    0.47790    0.62097   
 C6772    C    2.15190    0.47257    0.60188   
 C6773    C    2.18065    0.38531    0.28891   
 C6774    C    2.15190    0.37998    0.26982   
 C6775    C    2.43065    0.45012    -0.37521  
 C6776    C    2.40190    0.44480    -0.39430  
 C6777    C    1.81935    0.41099    0.38102   
 C6778    C    1.84810    0.41631    0.40012   
 C6779    C    2.06935    0.47581    -0.28309  
 C6780    C    2.09810    0.48113    -0.26400  
 C6781    C    2.06935    0.38321    -0.61515  
 C6782    C    2.09810    0.38854    -0.59606  
 C6783    C    2.31935    0.41099    0.38102   
 C6784    C    2.34810    0.41631    0.40012   
